*FIRST LINE IS A COMMENT

.SUBCKT reram_bitcell_7 bl br wl gnd
Xaccess be wl br gnd sky130_fd_pr__nfet_01v8 m=1 nf=4 w=7.0 l=0.15 pd=3.8 ps=3.8 as=0.65625 ad=0.65625
Xmem bl be sky130_fd_pr__reram_reram_cell
.ENDS reram_bitcell_7
.subckt ms_flop_clk_buf din dout dout_bar clk vdd gnd
xm1 clk_buf clk_bar gnd gnd sky130_fd_pr__nfet_01v8 l=0.15 w=0.36 nf=1
+   sa=0 sb=0 sd=0 mult=1 m=1
xm8 clk_buf clk_bar vdd vdd sky130_fd_pr__pfet_01v8 l=0.15 w=0.9 nf=1
+   sa=0 sb=0 sd=0 mult=1 m=1
xm2 clk_bar clk gnd gnd sky130_fd_pr__nfet_01v8 l=0.15 w=0.36 nf=1
+ sa=0 sb=0 sd=0 mult=1 m=1
xm3 clk_bar clk vdd vdd sky130_fd_pr__pfet_01v8 l=0.15 w=0.9 nf=1
+ sa=0 sb=0 sd=0 mult=1 m=1
x1 din clk_buf vdd gnd lout lout_bar clk_bar dlatch
x2 lout_bar clk_bar vdd gnd dout_bar dout clk_buf dlatch
.ends
.subckt dlatch  din clk vdd gnd dout dout_bar clk_bar
xm1 dout dout_bar gnd gnd sky130_fd_pr__nfet_01v8 l=0.15 w=0.61 nf=1
+   sa=0 sb=0 sd=0 mult=1 m=1
xm2 dout_bar int gnd gnd sky130_fd_pr__nfet_01v8 l=0.15 w=0.61 nf=1
+   sa=0 sb=0 sd=0 mult=1 m=1
xm3 int clk dout gnd sky130_fd_pr__nfet_01v8 l=0.15 w=0.36 nf=1
+ sa=0 sb=0 sd=0 mult=1 m=1
xm5 int clk_bar dout vdd sky130_fd_pr__pfet_01v8 l=0.15 w=0.6 nf=1
+ sa=0 sb=0 sd=0 mult=1 m=1
xm4 int clk_bar din gnd sky130_fd_pr__nfet_01v8 l=0.15 w=0.36 nf=1
+ sa=0 sb=0 sd=0 mult=1 m=1
xm6 int clk din vdd sky130_fd_pr__pfet_01v8 l=0.15 w=0.6 nf=1
+ sa=0 sb=0 sd=0 mult=1 m=1
xm7 dout_bar int vdd vdd sky130_fd_pr__pfet_01v8 l=0.15 w=1.22 nf=1
+   sa=0 sb=0 sd=0 mult=1 m=1
xm8 dout dout_bar vdd vdd sky130_fd_pr__pfet_01v8 l=0.15 w=1.22 nf=1
+   sa=0 sb=0 sd=0 mult=1 m=1
.ends

.SUBCKT flop_array_c16_w16_ms_flop_clk_buf_ms_flop_clk_buf_tap din[0] din[1] din[2] din[3] din[4] din[5] din[6] din[7] din[8] din[9] din[10] din[11] din[12] din[13] din[14] din[15] dout[0] dout_bar[0] dout[1] dout_bar[1] dout[2] dout_bar[2] dout[3] dout_bar[3] dout[4] dout_bar[4] dout[5] dout_bar[5] dout[6] dout_bar[6] dout[7] dout_bar[7] dout[8] dout_bar[8] dout[9] dout_bar[9] dout[10] dout_bar[10] dout[11] dout_bar[11] dout[12] dout_bar[12] dout[13] dout_bar[13] dout[14] dout_bar[14] dout[15] dout_bar[15] clk vdd gnd
Xmod_0 din[0] dout[0] dout_bar[0] clk vdd gnd ms_flop_clk_buf
Xmod_1 din[1] dout[1] dout_bar[1] clk vdd gnd ms_flop_clk_buf
Xmod_2 din[2] dout[2] dout_bar[2] clk vdd gnd ms_flop_clk_buf
Xmod_3 din[3] dout[3] dout_bar[3] clk vdd gnd ms_flop_clk_buf
Xmod_4 din[4] dout[4] dout_bar[4] clk vdd gnd ms_flop_clk_buf
Xmod_5 din[5] dout[5] dout_bar[5] clk vdd gnd ms_flop_clk_buf
Xmod_6 din[6] dout[6] dout_bar[6] clk vdd gnd ms_flop_clk_buf
Xmod_7 din[7] dout[7] dout_bar[7] clk vdd gnd ms_flop_clk_buf
Xmod_8 din[8] dout[8] dout_bar[8] clk vdd gnd ms_flop_clk_buf
Xmod_9 din[9] dout[9] dout_bar[9] clk vdd gnd ms_flop_clk_buf
Xmod_10 din[10] dout[10] dout_bar[10] clk vdd gnd ms_flop_clk_buf
Xmod_11 din[11] dout[11] dout_bar[11] clk vdd gnd ms_flop_clk_buf
Xmod_12 din[12] dout[12] dout_bar[12] clk vdd gnd ms_flop_clk_buf
Xmod_13 din[13] dout[13] dout_bar[13] clk vdd gnd ms_flop_clk_buf
Xmod_14 din[14] dout[14] dout_bar[14] clk vdd gnd ms_flop_clk_buf
Xmod_15 din[15] dout[15] dout_bar[15] clk vdd gnd ms_flop_clk_buf
.ENDS flop_array_c16_w16_ms_flop_clk_buf_ms_flop_clk_buf_tap
.subckt write_driver_mux_logic mask en data data_bar bl_p bl_n br_p br_n gnd vdd
xm4 mask_en_bar en net1 gnd sky130_fd_pr__nfet_01v8 l=0.15 w=0.72 nf=1
+   sa=0 sb=0 sd=0 mult=1 m=1
xm1 net1 mask gnd gnd sky130_fd_pr__nfet_01v8 l=0.15 w=0.72 nf=1
+ sa=0 sb=0 sd=0 mult=1 m=1
xm2 mask_en_bar en vdd vdd sky130_fd_pr__pfet_01v8 l=0.15 w=0.9 nf=1
+   sa=0 sb=0 sd=0 mult=1 m=1
xm3 mask_en_bar mask vdd vdd sky130_fd_pr__pfet_01v8 l=0.15 w=0.9 nf=1
+   sa=0 sb=0 sd=0 mult=1 m=1
xm5 mask_en mask_en_bar gnd gnd sky130_fd_pr__nfet_01v8 l=0.15 w=0.72 nf=1
+   sa=0 sb=0 sd=0 mult=1 m=1
xm7 br_p data_bar net2 gnd sky130_fd_pr__nfet_01v8 l=0.15 w=0.72 nf=1
+   sa=0 sb=0 sd=0 mult=1 m=1
xm8 net2 mask_en gnd gnd sky130_fd_pr__nfet_01v8 l=0.15 w=0.72 nf=1
+   sa=0 sb=0 sd=0 mult=1 m=1
xm9 br_p data_bar vdd vdd sky130_fd_pr__pfet_01v8 l=0.15 w=0.9 nf=1
+   sa=0 sb=0 sd=0 mult=1 m=1
xm10 br_p mask_en vdd vdd sky130_fd_pr__pfet_01v8 l=0.15 w=0.9 nf=1
+   sa=0 sb=0 sd=0 mult=1 m=1
xm11 bl_p data net3 gnd sky130_fd_pr__nfet_01v8 l=0.15 w=0.72 nf=1
+ sa=0 sb=0 sd=0 mult=1 m=1
xm12 net3 mask_en gnd gnd sky130_fd_pr__nfet_01v8 l=0.15 w=0.72 nf=1
+   sa=0 sb=0 sd=0 mult=1 m=1
xm13 bl_p data vdd vdd sky130_fd_pr__pfet_01v8 l=0.15 w=0.9 nf=1
+ sa=0 sb=0 sd=0 mult=1 m=1
xm14 bl_p mask_en vdd vdd sky130_fd_pr__pfet_01v8 l=0.15 w=0.9 nf=1
+   sa=0 sb=0 sd=0 mult=1 m=1
xm16 br_n mask_en_bar gnd gnd sky130_fd_pr__nfet_01v8 l=0.15 w=0.72 nf=1
+   sa=0 sb=0 sd=0 mult=1 m=1
xm18 br_n data_bar net4 vdd sky130_fd_pr__pfet_01v8 l=0.15 w=1.8 nf=1
+   sa=0 sb=0 sd=0 mult=1 m=1
xm15 br_n data_bar gnd gnd sky130_fd_pr__nfet_01v8 l=0.15 w=0.72 nf=1
+   sa=0 sb=0 sd=0 mult=1 m=1
xm17 net4 mask_en_bar vdd vdd sky130_fd_pr__pfet_01v8 l=0.15 w=1.8 nf=1
+   sa=0 sb=0 sd=0 mult=1 m=1
xm19 bl_n mask_en_bar gnd gnd sky130_fd_pr__nfet_01v8 l=0.15 w=0.72 nf=1
+   sa=0 sb=0 sd=0 mult=1 m=1
xm20 bl_n data net5 vdd sky130_fd_pr__pfet_01v8 l=0.15 w=1.8 nf=1
+ sa=0 sb=0 sd=0 mult=1 m=1
xm21 bl_n data gnd gnd sky130_fd_pr__nfet_01v8 l=0.15 w=0.72 nf=1
+ sa=0 sb=0 sd=0 mult=1 m=1
xm22 net5 mask_en_bar vdd vdd sky130_fd_pr__pfet_01v8 l=0.15 w=1.8 nf=1
+   sa=0 sb=0 sd=0 mult=1 m=1
xm6 mask_en mask_en_bar vdd vdd sky130_fd_pr__pfet_01v8 l=0.15 w=1.5 nf=1
+   sa=0 sb=0 sd=0 mult=1 m=1
.ends

* ptx X{0} {1} sky130_fd_pr__nfet_01v8 m=1 nf=2 w=3.6 l=0.15 pd=3.9 ps=3.9 as=0.675 ad=0.675

* ptx X{0} {1} sky130_fd_pr__pfet_01v8 m=1 nf=2 w=9.0 l=0.15 pd=9.3 ps=9.3 as=1.6875 ad=1.6875

* ptx X{0} {1} sky130_fd_pr__nfet_01v8 m=1 nf=2 w=3.6 l=0.15 pd=3.9 ps=3.9 as=0.675 ad=0.675

* ptx X{0} {1} sky130_fd_pr__pfet_01v8 m=1 nf=2 w=9.0 l=0.15 pd=9.3 ps=9.3 as=1.6875 ad=1.6875

.SUBCKT write_driver_sep_vdd_10 data data_bar mask en bl br vdd vdd_write_bl vdd_write_br gnd
Xlogic mask en data data_bar bl_p bl_n br_p br_n gnd vdd write_driver_mux_logic
Xbl_nmos bl bl_n gnd gnd sky130_fd_pr__nfet_01v8 m=1 nf=2 w=3.6 l=0.15 pd=3.9 ps=3.9 as=0.675 ad=0.675
Xbr_nmos br br_n gnd gnd sky130_fd_pr__nfet_01v8 m=1 nf=2 w=3.6 l=0.15 pd=3.9 ps=3.9 as=0.675 ad=0.675
Xbl_pmos bl bl_p vdd_write_bl vdd_write_bl sky130_fd_pr__pfet_01v8 m=1 nf=2 w=9.0 l=0.15 pd=9.3 ps=9.3 as=1.6875 ad=1.6875
Xbr_pmos br br_p vdd_write_br vdd_write_bl sky130_fd_pr__pfet_01v8 m=1 nf=2 w=9.0 l=0.15 pd=9.3 ps=9.3 as=1.6875 ad=1.6875
.ENDS write_driver_sep_vdd_10

.SUBCKT write_driver_array bl[0] bl[1] bl[2] bl[3] bl[4] bl[5] bl[6] bl[7] bl[8] bl[9] bl[10] bl[11] bl[12] bl[13] bl[14] bl[15] br[0] br[1] br[2] br[3] br[4] br[5] br[6] br[7] br[8] br[9] br[10] br[11] br[12] br[13] br[14] br[15] data[0] data[1] data[2] data[3] data[4] data[5] data[6] data[7] data[8] data[9] data[10] data[11] data[12] data[13] data[14] data[15] data_bar[0] data_bar[1] data_bar[2] data_bar[3] data_bar[4] data_bar[5] data_bar[6] data_bar[7] data_bar[8] data_bar[9] data_bar[10] data_bar[11] data_bar[12] data_bar[13] data_bar[14] data_bar[15] mask[0] mask[1] mask[2] mask[3] mask[4] mask[5] mask[6] mask[7] mask[8] mask[9] mask[10] mask[11] mask[12] mask[13] mask[14] mask[15] en vdd vdd_write_bl vdd_write_br gnd
Xmod_0 data[0] data_bar[0] mask[0] en bl[0] br[0] vdd vdd_write_bl vdd_write_br gnd write_driver_sep_vdd_10
Xmod_1 data[1] data_bar[1] mask[1] en bl[1] br[1] vdd vdd_write_bl vdd_write_br gnd write_driver_sep_vdd_10
Xmod_2 data[2] data_bar[2] mask[2] en bl[2] br[2] vdd vdd_write_bl vdd_write_br gnd write_driver_sep_vdd_10
Xmod_3 data[3] data_bar[3] mask[3] en bl[3] br[3] vdd vdd_write_bl vdd_write_br gnd write_driver_sep_vdd_10
Xmod_4 data[4] data_bar[4] mask[4] en bl[4] br[4] vdd vdd_write_bl vdd_write_br gnd write_driver_sep_vdd_10
Xmod_5 data[5] data_bar[5] mask[5] en bl[5] br[5] vdd vdd_write_bl vdd_write_br gnd write_driver_sep_vdd_10
Xmod_6 data[6] data_bar[6] mask[6] en bl[6] br[6] vdd vdd_write_bl vdd_write_br gnd write_driver_sep_vdd_10
Xmod_7 data[7] data_bar[7] mask[7] en bl[7] br[7] vdd vdd_write_bl vdd_write_br gnd write_driver_sep_vdd_10
Xmod_8 data[8] data_bar[8] mask[8] en bl[8] br[8] vdd vdd_write_bl vdd_write_br gnd write_driver_sep_vdd_10
Xmod_9 data[9] data_bar[9] mask[9] en bl[9] br[9] vdd vdd_write_bl vdd_write_br gnd write_driver_sep_vdd_10
Xmod_10 data[10] data_bar[10] mask[10] en bl[10] br[10] vdd vdd_write_bl vdd_write_br gnd write_driver_sep_vdd_10
Xmod_11 data[11] data_bar[11] mask[11] en bl[11] br[11] vdd vdd_write_bl vdd_write_br gnd write_driver_sep_vdd_10
Xmod_12 data[12] data_bar[12] mask[12] en bl[12] br[12] vdd vdd_write_bl vdd_write_br gnd write_driver_sep_vdd_10
Xmod_13 data[13] data_bar[13] mask[13] en bl[13] br[13] vdd vdd_write_bl vdd_write_br gnd write_driver_sep_vdd_10
Xmod_14 data[14] data_bar[14] mask[14] en bl[14] br[14] vdd vdd_write_bl vdd_write_br gnd write_driver_sep_vdd_10
Xmod_15 data[15] data_bar[15] mask[15] en bl[15] br[15] vdd vdd_write_bl vdd_write_br gnd write_driver_sep_vdd_10
.ENDS write_driver_array

.SUBCKT bitcell_array bl[0] br[0] bl[1] br[1] bl[2] br[2] bl[3] br[3] bl[4] br[4] bl[5] br[5] bl[6] br[6] bl[7] br[7] bl[8] br[8] bl[9] br[9] bl[10] br[10] bl[11] br[11] bl[12] br[12] bl[13] br[13] bl[14] br[14] bl[15] br[15] wl[0] wl[1] wl[2] wl[3] wl[4] wl[5] wl[6] wl[7] wl[8] wl[9] wl[10] wl[11] wl[12] wl[13] wl[14] wl[15] vdd gnd
Xbit_r0_c0 bl[0] br[0] wl[0] gnd reram_bitcell_7
Xbit_r1_c0 bl[0] br[0] wl[1] gnd reram_bitcell_7
Xbit_r2_c0 bl[0] br[0] wl[2] gnd reram_bitcell_7
Xbit_r3_c0 bl[0] br[0] wl[3] gnd reram_bitcell_7
Xbit_r4_c0 bl[0] br[0] wl[4] gnd reram_bitcell_7
Xbit_r5_c0 bl[0] br[0] wl[5] gnd reram_bitcell_7
Xbit_r6_c0 bl[0] br[0] wl[6] gnd reram_bitcell_7
Xbit_r7_c0 bl[0] br[0] wl[7] gnd reram_bitcell_7
Xbit_r8_c0 bl[0] br[0] wl[8] gnd reram_bitcell_7
Xbit_r9_c0 bl[0] br[0] wl[9] gnd reram_bitcell_7
Xbit_r10_c0 bl[0] br[0] wl[10] gnd reram_bitcell_7
Xbit_r11_c0 bl[0] br[0] wl[11] gnd reram_bitcell_7
Xbit_r12_c0 bl[0] br[0] wl[12] gnd reram_bitcell_7
Xbit_r13_c0 bl[0] br[0] wl[13] gnd reram_bitcell_7
Xbit_r14_c0 bl[0] br[0] wl[14] gnd reram_bitcell_7
Xbit_r15_c0 bl[0] br[0] wl[15] gnd reram_bitcell_7
Xbit_r0_c1 bl[1] br[1] wl[0] gnd reram_bitcell_7
Xbit_r1_c1 bl[1] br[1] wl[1] gnd reram_bitcell_7
Xbit_r2_c1 bl[1] br[1] wl[2] gnd reram_bitcell_7
Xbit_r3_c1 bl[1] br[1] wl[3] gnd reram_bitcell_7
Xbit_r4_c1 bl[1] br[1] wl[4] gnd reram_bitcell_7
Xbit_r5_c1 bl[1] br[1] wl[5] gnd reram_bitcell_7
Xbit_r6_c1 bl[1] br[1] wl[6] gnd reram_bitcell_7
Xbit_r7_c1 bl[1] br[1] wl[7] gnd reram_bitcell_7
Xbit_r8_c1 bl[1] br[1] wl[8] gnd reram_bitcell_7
Xbit_r9_c1 bl[1] br[1] wl[9] gnd reram_bitcell_7
Xbit_r10_c1 bl[1] br[1] wl[10] gnd reram_bitcell_7
Xbit_r11_c1 bl[1] br[1] wl[11] gnd reram_bitcell_7
Xbit_r12_c1 bl[1] br[1] wl[12] gnd reram_bitcell_7
Xbit_r13_c1 bl[1] br[1] wl[13] gnd reram_bitcell_7
Xbit_r14_c1 bl[1] br[1] wl[14] gnd reram_bitcell_7
Xbit_r15_c1 bl[1] br[1] wl[15] gnd reram_bitcell_7
Xbit_r0_c2 bl[2] br[2] wl[0] gnd reram_bitcell_7
Xbit_r1_c2 bl[2] br[2] wl[1] gnd reram_bitcell_7
Xbit_r2_c2 bl[2] br[2] wl[2] gnd reram_bitcell_7
Xbit_r3_c2 bl[2] br[2] wl[3] gnd reram_bitcell_7
Xbit_r4_c2 bl[2] br[2] wl[4] gnd reram_bitcell_7
Xbit_r5_c2 bl[2] br[2] wl[5] gnd reram_bitcell_7
Xbit_r6_c2 bl[2] br[2] wl[6] gnd reram_bitcell_7
Xbit_r7_c2 bl[2] br[2] wl[7] gnd reram_bitcell_7
Xbit_r8_c2 bl[2] br[2] wl[8] gnd reram_bitcell_7
Xbit_r9_c2 bl[2] br[2] wl[9] gnd reram_bitcell_7
Xbit_r10_c2 bl[2] br[2] wl[10] gnd reram_bitcell_7
Xbit_r11_c2 bl[2] br[2] wl[11] gnd reram_bitcell_7
Xbit_r12_c2 bl[2] br[2] wl[12] gnd reram_bitcell_7
Xbit_r13_c2 bl[2] br[2] wl[13] gnd reram_bitcell_7
Xbit_r14_c2 bl[2] br[2] wl[14] gnd reram_bitcell_7
Xbit_r15_c2 bl[2] br[2] wl[15] gnd reram_bitcell_7
Xbit_r0_c3 bl[3] br[3] wl[0] gnd reram_bitcell_7
Xbit_r1_c3 bl[3] br[3] wl[1] gnd reram_bitcell_7
Xbit_r2_c3 bl[3] br[3] wl[2] gnd reram_bitcell_7
Xbit_r3_c3 bl[3] br[3] wl[3] gnd reram_bitcell_7
Xbit_r4_c3 bl[3] br[3] wl[4] gnd reram_bitcell_7
Xbit_r5_c3 bl[3] br[3] wl[5] gnd reram_bitcell_7
Xbit_r6_c3 bl[3] br[3] wl[6] gnd reram_bitcell_7
Xbit_r7_c3 bl[3] br[3] wl[7] gnd reram_bitcell_7
Xbit_r8_c3 bl[3] br[3] wl[8] gnd reram_bitcell_7
Xbit_r9_c3 bl[3] br[3] wl[9] gnd reram_bitcell_7
Xbit_r10_c3 bl[3] br[3] wl[10] gnd reram_bitcell_7
Xbit_r11_c3 bl[3] br[3] wl[11] gnd reram_bitcell_7
Xbit_r12_c3 bl[3] br[3] wl[12] gnd reram_bitcell_7
Xbit_r13_c3 bl[3] br[3] wl[13] gnd reram_bitcell_7
Xbit_r14_c3 bl[3] br[3] wl[14] gnd reram_bitcell_7
Xbit_r15_c3 bl[3] br[3] wl[15] gnd reram_bitcell_7
Xbit_r0_c4 bl[4] br[4] wl[0] gnd reram_bitcell_7
Xbit_r1_c4 bl[4] br[4] wl[1] gnd reram_bitcell_7
Xbit_r2_c4 bl[4] br[4] wl[2] gnd reram_bitcell_7
Xbit_r3_c4 bl[4] br[4] wl[3] gnd reram_bitcell_7
Xbit_r4_c4 bl[4] br[4] wl[4] gnd reram_bitcell_7
Xbit_r5_c4 bl[4] br[4] wl[5] gnd reram_bitcell_7
Xbit_r6_c4 bl[4] br[4] wl[6] gnd reram_bitcell_7
Xbit_r7_c4 bl[4] br[4] wl[7] gnd reram_bitcell_7
Xbit_r8_c4 bl[4] br[4] wl[8] gnd reram_bitcell_7
Xbit_r9_c4 bl[4] br[4] wl[9] gnd reram_bitcell_7
Xbit_r10_c4 bl[4] br[4] wl[10] gnd reram_bitcell_7
Xbit_r11_c4 bl[4] br[4] wl[11] gnd reram_bitcell_7
Xbit_r12_c4 bl[4] br[4] wl[12] gnd reram_bitcell_7
Xbit_r13_c4 bl[4] br[4] wl[13] gnd reram_bitcell_7
Xbit_r14_c4 bl[4] br[4] wl[14] gnd reram_bitcell_7
Xbit_r15_c4 bl[4] br[4] wl[15] gnd reram_bitcell_7
Xbit_r0_c5 bl[5] br[5] wl[0] gnd reram_bitcell_7
Xbit_r1_c5 bl[5] br[5] wl[1] gnd reram_bitcell_7
Xbit_r2_c5 bl[5] br[5] wl[2] gnd reram_bitcell_7
Xbit_r3_c5 bl[5] br[5] wl[3] gnd reram_bitcell_7
Xbit_r4_c5 bl[5] br[5] wl[4] gnd reram_bitcell_7
Xbit_r5_c5 bl[5] br[5] wl[5] gnd reram_bitcell_7
Xbit_r6_c5 bl[5] br[5] wl[6] gnd reram_bitcell_7
Xbit_r7_c5 bl[5] br[5] wl[7] gnd reram_bitcell_7
Xbit_r8_c5 bl[5] br[5] wl[8] gnd reram_bitcell_7
Xbit_r9_c5 bl[5] br[5] wl[9] gnd reram_bitcell_7
Xbit_r10_c5 bl[5] br[5] wl[10] gnd reram_bitcell_7
Xbit_r11_c5 bl[5] br[5] wl[11] gnd reram_bitcell_7
Xbit_r12_c5 bl[5] br[5] wl[12] gnd reram_bitcell_7
Xbit_r13_c5 bl[5] br[5] wl[13] gnd reram_bitcell_7
Xbit_r14_c5 bl[5] br[5] wl[14] gnd reram_bitcell_7
Xbit_r15_c5 bl[5] br[5] wl[15] gnd reram_bitcell_7
Xbit_r0_c6 bl[6] br[6] wl[0] gnd reram_bitcell_7
Xbit_r1_c6 bl[6] br[6] wl[1] gnd reram_bitcell_7
Xbit_r2_c6 bl[6] br[6] wl[2] gnd reram_bitcell_7
Xbit_r3_c6 bl[6] br[6] wl[3] gnd reram_bitcell_7
Xbit_r4_c6 bl[6] br[6] wl[4] gnd reram_bitcell_7
Xbit_r5_c6 bl[6] br[6] wl[5] gnd reram_bitcell_7
Xbit_r6_c6 bl[6] br[6] wl[6] gnd reram_bitcell_7
Xbit_r7_c6 bl[6] br[6] wl[7] gnd reram_bitcell_7
Xbit_r8_c6 bl[6] br[6] wl[8] gnd reram_bitcell_7
Xbit_r9_c6 bl[6] br[6] wl[9] gnd reram_bitcell_7
Xbit_r10_c6 bl[6] br[6] wl[10] gnd reram_bitcell_7
Xbit_r11_c6 bl[6] br[6] wl[11] gnd reram_bitcell_7
Xbit_r12_c6 bl[6] br[6] wl[12] gnd reram_bitcell_7
Xbit_r13_c6 bl[6] br[6] wl[13] gnd reram_bitcell_7
Xbit_r14_c6 bl[6] br[6] wl[14] gnd reram_bitcell_7
Xbit_r15_c6 bl[6] br[6] wl[15] gnd reram_bitcell_7
Xbit_r0_c7 bl[7] br[7] wl[0] gnd reram_bitcell_7
Xbit_r1_c7 bl[7] br[7] wl[1] gnd reram_bitcell_7
Xbit_r2_c7 bl[7] br[7] wl[2] gnd reram_bitcell_7
Xbit_r3_c7 bl[7] br[7] wl[3] gnd reram_bitcell_7
Xbit_r4_c7 bl[7] br[7] wl[4] gnd reram_bitcell_7
Xbit_r5_c7 bl[7] br[7] wl[5] gnd reram_bitcell_7
Xbit_r6_c7 bl[7] br[7] wl[6] gnd reram_bitcell_7
Xbit_r7_c7 bl[7] br[7] wl[7] gnd reram_bitcell_7
Xbit_r8_c7 bl[7] br[7] wl[8] gnd reram_bitcell_7
Xbit_r9_c7 bl[7] br[7] wl[9] gnd reram_bitcell_7
Xbit_r10_c7 bl[7] br[7] wl[10] gnd reram_bitcell_7
Xbit_r11_c7 bl[7] br[7] wl[11] gnd reram_bitcell_7
Xbit_r12_c7 bl[7] br[7] wl[12] gnd reram_bitcell_7
Xbit_r13_c7 bl[7] br[7] wl[13] gnd reram_bitcell_7
Xbit_r14_c7 bl[7] br[7] wl[14] gnd reram_bitcell_7
Xbit_r15_c7 bl[7] br[7] wl[15] gnd reram_bitcell_7
Xbit_r0_c8 bl[8] br[8] wl[0] gnd reram_bitcell_7
Xbit_r1_c8 bl[8] br[8] wl[1] gnd reram_bitcell_7
Xbit_r2_c8 bl[8] br[8] wl[2] gnd reram_bitcell_7
Xbit_r3_c8 bl[8] br[8] wl[3] gnd reram_bitcell_7
Xbit_r4_c8 bl[8] br[8] wl[4] gnd reram_bitcell_7
Xbit_r5_c8 bl[8] br[8] wl[5] gnd reram_bitcell_7
Xbit_r6_c8 bl[8] br[8] wl[6] gnd reram_bitcell_7
Xbit_r7_c8 bl[8] br[8] wl[7] gnd reram_bitcell_7
Xbit_r8_c8 bl[8] br[8] wl[8] gnd reram_bitcell_7
Xbit_r9_c8 bl[8] br[8] wl[9] gnd reram_bitcell_7
Xbit_r10_c8 bl[8] br[8] wl[10] gnd reram_bitcell_7
Xbit_r11_c8 bl[8] br[8] wl[11] gnd reram_bitcell_7
Xbit_r12_c8 bl[8] br[8] wl[12] gnd reram_bitcell_7
Xbit_r13_c8 bl[8] br[8] wl[13] gnd reram_bitcell_7
Xbit_r14_c8 bl[8] br[8] wl[14] gnd reram_bitcell_7
Xbit_r15_c8 bl[8] br[8] wl[15] gnd reram_bitcell_7
Xbit_r0_c9 bl[9] br[9] wl[0] gnd reram_bitcell_7
Xbit_r1_c9 bl[9] br[9] wl[1] gnd reram_bitcell_7
Xbit_r2_c9 bl[9] br[9] wl[2] gnd reram_bitcell_7
Xbit_r3_c9 bl[9] br[9] wl[3] gnd reram_bitcell_7
Xbit_r4_c9 bl[9] br[9] wl[4] gnd reram_bitcell_7
Xbit_r5_c9 bl[9] br[9] wl[5] gnd reram_bitcell_7
Xbit_r6_c9 bl[9] br[9] wl[6] gnd reram_bitcell_7
Xbit_r7_c9 bl[9] br[9] wl[7] gnd reram_bitcell_7
Xbit_r8_c9 bl[9] br[9] wl[8] gnd reram_bitcell_7
Xbit_r9_c9 bl[9] br[9] wl[9] gnd reram_bitcell_7
Xbit_r10_c9 bl[9] br[9] wl[10] gnd reram_bitcell_7
Xbit_r11_c9 bl[9] br[9] wl[11] gnd reram_bitcell_7
Xbit_r12_c9 bl[9] br[9] wl[12] gnd reram_bitcell_7
Xbit_r13_c9 bl[9] br[9] wl[13] gnd reram_bitcell_7
Xbit_r14_c9 bl[9] br[9] wl[14] gnd reram_bitcell_7
Xbit_r15_c9 bl[9] br[9] wl[15] gnd reram_bitcell_7
Xbit_r0_c10 bl[10] br[10] wl[0] gnd reram_bitcell_7
Xbit_r1_c10 bl[10] br[10] wl[1] gnd reram_bitcell_7
Xbit_r2_c10 bl[10] br[10] wl[2] gnd reram_bitcell_7
Xbit_r3_c10 bl[10] br[10] wl[3] gnd reram_bitcell_7
Xbit_r4_c10 bl[10] br[10] wl[4] gnd reram_bitcell_7
Xbit_r5_c10 bl[10] br[10] wl[5] gnd reram_bitcell_7
Xbit_r6_c10 bl[10] br[10] wl[6] gnd reram_bitcell_7
Xbit_r7_c10 bl[10] br[10] wl[7] gnd reram_bitcell_7
Xbit_r8_c10 bl[10] br[10] wl[8] gnd reram_bitcell_7
Xbit_r9_c10 bl[10] br[10] wl[9] gnd reram_bitcell_7
Xbit_r10_c10 bl[10] br[10] wl[10] gnd reram_bitcell_7
Xbit_r11_c10 bl[10] br[10] wl[11] gnd reram_bitcell_7
Xbit_r12_c10 bl[10] br[10] wl[12] gnd reram_bitcell_7
Xbit_r13_c10 bl[10] br[10] wl[13] gnd reram_bitcell_7
Xbit_r14_c10 bl[10] br[10] wl[14] gnd reram_bitcell_7
Xbit_r15_c10 bl[10] br[10] wl[15] gnd reram_bitcell_7
Xbit_r0_c11 bl[11] br[11] wl[0] gnd reram_bitcell_7
Xbit_r1_c11 bl[11] br[11] wl[1] gnd reram_bitcell_7
Xbit_r2_c11 bl[11] br[11] wl[2] gnd reram_bitcell_7
Xbit_r3_c11 bl[11] br[11] wl[3] gnd reram_bitcell_7
Xbit_r4_c11 bl[11] br[11] wl[4] gnd reram_bitcell_7
Xbit_r5_c11 bl[11] br[11] wl[5] gnd reram_bitcell_7
Xbit_r6_c11 bl[11] br[11] wl[6] gnd reram_bitcell_7
Xbit_r7_c11 bl[11] br[11] wl[7] gnd reram_bitcell_7
Xbit_r8_c11 bl[11] br[11] wl[8] gnd reram_bitcell_7
Xbit_r9_c11 bl[11] br[11] wl[9] gnd reram_bitcell_7
Xbit_r10_c11 bl[11] br[11] wl[10] gnd reram_bitcell_7
Xbit_r11_c11 bl[11] br[11] wl[11] gnd reram_bitcell_7
Xbit_r12_c11 bl[11] br[11] wl[12] gnd reram_bitcell_7
Xbit_r13_c11 bl[11] br[11] wl[13] gnd reram_bitcell_7
Xbit_r14_c11 bl[11] br[11] wl[14] gnd reram_bitcell_7
Xbit_r15_c11 bl[11] br[11] wl[15] gnd reram_bitcell_7
Xbit_r0_c12 bl[12] br[12] wl[0] gnd reram_bitcell_7
Xbit_r1_c12 bl[12] br[12] wl[1] gnd reram_bitcell_7
Xbit_r2_c12 bl[12] br[12] wl[2] gnd reram_bitcell_7
Xbit_r3_c12 bl[12] br[12] wl[3] gnd reram_bitcell_7
Xbit_r4_c12 bl[12] br[12] wl[4] gnd reram_bitcell_7
Xbit_r5_c12 bl[12] br[12] wl[5] gnd reram_bitcell_7
Xbit_r6_c12 bl[12] br[12] wl[6] gnd reram_bitcell_7
Xbit_r7_c12 bl[12] br[12] wl[7] gnd reram_bitcell_7
Xbit_r8_c12 bl[12] br[12] wl[8] gnd reram_bitcell_7
Xbit_r9_c12 bl[12] br[12] wl[9] gnd reram_bitcell_7
Xbit_r10_c12 bl[12] br[12] wl[10] gnd reram_bitcell_7
Xbit_r11_c12 bl[12] br[12] wl[11] gnd reram_bitcell_7
Xbit_r12_c12 bl[12] br[12] wl[12] gnd reram_bitcell_7
Xbit_r13_c12 bl[12] br[12] wl[13] gnd reram_bitcell_7
Xbit_r14_c12 bl[12] br[12] wl[14] gnd reram_bitcell_7
Xbit_r15_c12 bl[12] br[12] wl[15] gnd reram_bitcell_7
Xbit_r0_c13 bl[13] br[13] wl[0] gnd reram_bitcell_7
Xbit_r1_c13 bl[13] br[13] wl[1] gnd reram_bitcell_7
Xbit_r2_c13 bl[13] br[13] wl[2] gnd reram_bitcell_7
Xbit_r3_c13 bl[13] br[13] wl[3] gnd reram_bitcell_7
Xbit_r4_c13 bl[13] br[13] wl[4] gnd reram_bitcell_7
Xbit_r5_c13 bl[13] br[13] wl[5] gnd reram_bitcell_7
Xbit_r6_c13 bl[13] br[13] wl[6] gnd reram_bitcell_7
Xbit_r7_c13 bl[13] br[13] wl[7] gnd reram_bitcell_7
Xbit_r8_c13 bl[13] br[13] wl[8] gnd reram_bitcell_7
Xbit_r9_c13 bl[13] br[13] wl[9] gnd reram_bitcell_7
Xbit_r10_c13 bl[13] br[13] wl[10] gnd reram_bitcell_7
Xbit_r11_c13 bl[13] br[13] wl[11] gnd reram_bitcell_7
Xbit_r12_c13 bl[13] br[13] wl[12] gnd reram_bitcell_7
Xbit_r13_c13 bl[13] br[13] wl[13] gnd reram_bitcell_7
Xbit_r14_c13 bl[13] br[13] wl[14] gnd reram_bitcell_7
Xbit_r15_c13 bl[13] br[13] wl[15] gnd reram_bitcell_7
Xbit_r0_c14 bl[14] br[14] wl[0] gnd reram_bitcell_7
Xbit_r1_c14 bl[14] br[14] wl[1] gnd reram_bitcell_7
Xbit_r2_c14 bl[14] br[14] wl[2] gnd reram_bitcell_7
Xbit_r3_c14 bl[14] br[14] wl[3] gnd reram_bitcell_7
Xbit_r4_c14 bl[14] br[14] wl[4] gnd reram_bitcell_7
Xbit_r5_c14 bl[14] br[14] wl[5] gnd reram_bitcell_7
Xbit_r6_c14 bl[14] br[14] wl[6] gnd reram_bitcell_7
Xbit_r7_c14 bl[14] br[14] wl[7] gnd reram_bitcell_7
Xbit_r8_c14 bl[14] br[14] wl[8] gnd reram_bitcell_7
Xbit_r9_c14 bl[14] br[14] wl[9] gnd reram_bitcell_7
Xbit_r10_c14 bl[14] br[14] wl[10] gnd reram_bitcell_7
Xbit_r11_c14 bl[14] br[14] wl[11] gnd reram_bitcell_7
Xbit_r12_c14 bl[14] br[14] wl[12] gnd reram_bitcell_7
Xbit_r13_c14 bl[14] br[14] wl[13] gnd reram_bitcell_7
Xbit_r14_c14 bl[14] br[14] wl[14] gnd reram_bitcell_7
Xbit_r15_c14 bl[14] br[14] wl[15] gnd reram_bitcell_7
Xbit_r0_c15 bl[15] br[15] wl[0] gnd reram_bitcell_7
Xbit_r1_c15 bl[15] br[15] wl[1] gnd reram_bitcell_7
Xbit_r2_c15 bl[15] br[15] wl[2] gnd reram_bitcell_7
Xbit_r3_c15 bl[15] br[15] wl[3] gnd reram_bitcell_7
Xbit_r4_c15 bl[15] br[15] wl[4] gnd reram_bitcell_7
Xbit_r5_c15 bl[15] br[15] wl[5] gnd reram_bitcell_7
Xbit_r6_c15 bl[15] br[15] wl[6] gnd reram_bitcell_7
Xbit_r7_c15 bl[15] br[15] wl[7] gnd reram_bitcell_7
Xbit_r8_c15 bl[15] br[15] wl[8] gnd reram_bitcell_7
Xbit_r9_c15 bl[15] br[15] wl[9] gnd reram_bitcell_7
Xbit_r10_c15 bl[15] br[15] wl[10] gnd reram_bitcell_7
Xbit_r11_c15 bl[15] br[15] wl[11] gnd reram_bitcell_7
Xbit_r12_c15 bl[15] br[15] wl[12] gnd reram_bitcell_7
Xbit_r13_c15 bl[15] br[15] wl[13] gnd reram_bitcell_7
Xbit_r14_c15 bl[15] br[15] wl[14] gnd reram_bitcell_7
Xbit_r15_c15 bl[15] br[15] wl[15] gnd reram_bitcell_7
.ENDS bitcell_array

* ptx X{0} {1} sky130_fd_pr__nfet_01v8 m=1 nf=4 w=4.32 l=0.15 pd=2.46 ps=2.46 as=0.405 ad=0.405

* ptx X{0} {1} sky130_fd_pr__nfet_01v8 m=1 nf=1 w=1.08 l=0.15 pd=2.46 ps=2.46 as=0.405 ad=0.405

* ptx X{0} {1} sky130_fd_pr__pfet_01v8 m=1 nf=4 w=10.8 l=0.15 pd=5.7 ps=5.7 as=1.0125000000000002 ad=1.0125000000000002

* ptx X{0} {1} sky130_fd_pr__pfet_01v8 m=1 nf=1 w=2.7 l=0.15 pd=5.7 ps=5.7 as=1.0125000000000002 ad=1.0125000000000002

.SUBCKT tri_state_6 in_bar out en en_bar vdd gnd
Xnmos0 gnd en left_mid_n gnd sky130_fd_pr__nfet_01v8 m=1 nf=1 w=1.08 l=0.15 pd=2.46 ps=2.46 as=0.405 ad=0.405
Xnmos1 left_mid_n in_bar out gnd sky130_fd_pr__nfet_01v8 m=1 nf=1 w=1.08 l=0.15 pd=2.46 ps=2.46 as=0.405 ad=0.405
Xnmos2 gnd en right_mid_n gnd sky130_fd_pr__nfet_01v8 m=1 nf=1 w=1.08 l=0.15 pd=2.46 ps=2.46 as=0.405 ad=0.405
Xnmos3 right_mid_n in_bar out gnd sky130_fd_pr__nfet_01v8 m=1 nf=1 w=1.08 l=0.15 pd=2.46 ps=2.46 as=0.405 ad=0.405
Xpmos0 vdd en_bar left_mid_p vdd sky130_fd_pr__pfet_01v8 m=1 nf=1 w=2.7 l=0.15 pd=5.7 ps=5.7 as=1.0125000000000002 ad=1.0125000000000002
Xpmos1 left_mid_p in_bar out vdd sky130_fd_pr__pfet_01v8 m=1 nf=1 w=2.7 l=0.15 pd=5.7 ps=5.7 as=1.0125000000000002 ad=1.0125000000000002
Xpmos2 vdd en_bar right_mid_p vdd sky130_fd_pr__pfet_01v8 m=1 nf=1 w=2.7 l=0.15 pd=5.7 ps=5.7 as=1.0125000000000002 ad=1.0125000000000002
Xpmos3 right_mid_p in_bar out vdd sky130_fd_pr__pfet_01v8 m=1 nf=1 w=2.7 l=0.15 pd=5.7 ps=5.7 as=1.0125000000000002 ad=1.0125000000000002
.ENDS tri_state_6

.SUBCKT tri_gate_array in_bar[0] in_bar[1] in_bar[2] in_bar[3] in_bar[4] in_bar[5] in_bar[6] in_bar[7] in_bar[8] in_bar[9] in_bar[10] in_bar[11] in_bar[12] in_bar[13] in_bar[14] in_bar[15] out[0] out[1] out[2] out[3] out[4] out[5] out[6] out[7] out[8] out[9] out[10] out[11] out[12] out[13] out[14] out[15] en en_bar vdd gnd
Xmod_0 in_bar[0] out[0] en en_bar vdd gnd tri_state_6
Xmod_1 in_bar[1] out[1] en en_bar vdd gnd tri_state_6
Xmod_2 in_bar[2] out[2] en en_bar vdd gnd tri_state_6
Xmod_3 in_bar[3] out[3] en en_bar vdd gnd tri_state_6
Xmod_4 in_bar[4] out[4] en en_bar vdd gnd tri_state_6
Xmod_5 in_bar[5] out[5] en en_bar vdd gnd tri_state_6
Xmod_6 in_bar[6] out[6] en en_bar vdd gnd tri_state_6
Xmod_7 in_bar[7] out[7] en en_bar vdd gnd tri_state_6
Xmod_8 in_bar[8] out[8] en en_bar vdd gnd tri_state_6
Xmod_9 in_bar[9] out[9] en en_bar vdd gnd tri_state_6
Xmod_10 in_bar[10] out[10] en en_bar vdd gnd tri_state_6
Xmod_11 in_bar[11] out[11] en en_bar vdd gnd tri_state_6
Xmod_12 in_bar[12] out[12] en en_bar vdd gnd tri_state_6
Xmod_13 in_bar[13] out[13] en en_bar vdd gnd tri_state_6
Xmod_14 in_bar[14] out[14] en en_bar vdd gnd tri_state_6
Xmod_15 in_bar[15] out[15] en en_bar vdd gnd tri_state_6
.ENDS tri_gate_array
.subckt re_ram_sense_amp bl br dout dout_bar en gnd sampleb vclamp vclampp vdd vref
xm1 vdata vclamp bl gnd sky130_fd_pr__nfet_01v8 l=0.15 w=1.44 nf=4
+ sa=0 sb=0 sd=0 mult=1 m=1
xm2 vdata vclampp net1 vdd sky130_fd_pr__pfet_01v8 l=0.15 w=0.9 nf=1
+   sa=0 sb=0 sd=0 mult=1 m=1
xm3 net1 sampleb vdd vdd sky130_fd_pr__pfet_01v8 l=0.15 w=0.9 nf=1
+ sa=0 sb=0 sd=0 mult=1 m=1
xm4 net3 vdata net2 gnd sky130_fd_pr__nfet_01v8 l=0.15 w=0.6 nf=1
+ sa=0 sb=0 sd=0 mult=1 m=1
xm5 dout vref net2 gnd sky130_fd_pr__nfet_01v8 l=0.15 w=0.6 nf=1
+ sa=0 sb=0 sd=0 mult=1 m=1
xm6 net2 en gnd gnd sky130_fd_pr__nfet_01v8 l=0.15 w=1.2 nf=2
+ sa=0 sb=0 sd=0 mult=1 m=1
xm7 dout net3 vdd vdd sky130_fd_pr__pfet_01v8 l=0.15 w=1.2 nf=1
+ sa=0 sb=0 sd=0 mult=1 m=1
xm8 net3 net3 vdd vdd sky130_fd_pr__pfet_01v8 l=0.15 w=1.2 nf=1
+ sa=0 sb=0 sd=0 mult=1 m=1
xm9 dout_bar dout gnd gnd sky130_fd_pr__nfet_01v8 l=0.15 w=0.72 nf=2
+   sa=0 sb=0 sd=0 mult=1 m=1
xm10 dout_bar dout vdd vdd sky130_fd_pr__pfet_01v8 l=0.15 w=1.44 nf=2
+   sa=0 sb=0 sd=0 mult=1 m=1
.ends

.SUBCKT sense_amp_array bl[0] bl[1] bl[2] bl[3] bl[4] bl[5] bl[6] bl[7] bl[8] bl[9] bl[10] bl[11] bl[12] bl[13] bl[14] bl[15] br[0] br[1] br[2] br[3] br[4] br[5] br[6] br[7] br[8] br[9] br[10] br[11] br[12] br[13] br[14] br[15] dout[0] dout[1] dout[2] dout[3] dout[4] dout[5] dout[6] dout[7] dout[8] dout[9] dout[10] dout[11] dout[12] dout[13] dout[14] dout[15] dout_bar[0] dout_bar[1] dout_bar[2] dout_bar[3] dout_bar[4] dout_bar[5] dout_bar[6] dout_bar[7] dout_bar[8] dout_bar[9] dout_bar[10] dout_bar[11] dout_bar[12] dout_bar[13] dout_bar[14] dout_bar[15] en gnd sampleb vclamp vclampp vdd vref
Xmod_0 bl[0] br[0] dout[0] dout_bar[0] en gnd sampleb vclamp vclampp vdd vref re_ram_sense_amp
Xmod_1 bl[1] br[1] dout[1] dout_bar[1] en gnd sampleb vclamp vclampp vdd vref re_ram_sense_amp
Xmod_2 bl[2] br[2] dout[2] dout_bar[2] en gnd sampleb vclamp vclampp vdd vref re_ram_sense_amp
Xmod_3 bl[3] br[3] dout[3] dout_bar[3] en gnd sampleb vclamp vclampp vdd vref re_ram_sense_amp
Xmod_4 bl[4] br[4] dout[4] dout_bar[4] en gnd sampleb vclamp vclampp vdd vref re_ram_sense_amp
Xmod_5 bl[5] br[5] dout[5] dout_bar[5] en gnd sampleb vclamp vclampp vdd vref re_ram_sense_amp
Xmod_6 bl[6] br[6] dout[6] dout_bar[6] en gnd sampleb vclamp vclampp vdd vref re_ram_sense_amp
Xmod_7 bl[7] br[7] dout[7] dout_bar[7] en gnd sampleb vclamp vclampp vdd vref re_ram_sense_amp
Xmod_8 bl[8] br[8] dout[8] dout_bar[8] en gnd sampleb vclamp vclampp vdd vref re_ram_sense_amp
Xmod_9 bl[9] br[9] dout[9] dout_bar[9] en gnd sampleb vclamp vclampp vdd vref re_ram_sense_amp
Xmod_10 bl[10] br[10] dout[10] dout_bar[10] en gnd sampleb vclamp vclampp vdd vref re_ram_sense_amp
Xmod_11 bl[11] br[11] dout[11] dout_bar[11] en gnd sampleb vclamp vclampp vdd vref re_ram_sense_amp
Xmod_12 bl[12] br[12] dout[12] dout_bar[12] en gnd sampleb vclamp vclampp vdd vref re_ram_sense_amp
Xmod_13 bl[13] br[13] dout[13] dout_bar[13] en gnd sampleb vclamp vclampp vdd vref re_ram_sense_amp
Xmod_14 bl[14] br[14] dout[14] dout_bar[14] en gnd sampleb vclamp vclampp vdd vref re_ram_sense_amp
Xmod_15 bl[15] br[15] dout[15] dout_bar[15] en gnd sampleb vclamp vclampp vdd vref re_ram_sense_amp
.ENDS sense_amp_array

* ptx X{0} {1} sky130_fd_pr__pfet_01v8 m=1 nf=1 w=0.9 l=0.15 pd=2.1 ps=2.1 as=0.3375 ad=0.3375

.SUBCKT pinv_1_no_p_no_n_align_same_line A Z vdd gnd
Xpmos1 Z A vdd vdd sky130_fd_pr__pfet_01v8 m=1 nf=1 w=0.9 l=0.15 pd=2.1 ps=2.1 as=0.3375 ad=0.3375
Xnmos2 Z A gnd gnd sky130_fd_pr__nfet_01v8 m=1 nf=1 w=0.36 l=0.15 pd=1.02 ps=1.02 as=0.135 ad=0.135
.ENDS pinv_1_no_p_no_n_align_same_line

.SUBCKT pnand2_1_no_p_no_n_align_same_line A B Z vdd gnd
Xpmos1 vdd A Z vdd sky130_fd_pr__pfet_01v8 m=1 nf=1 w=0.9 l=0.15 pd=2.1 ps=2.1 as=0.3375 ad=0.3375
Xpmos2 Z B vdd vdd sky130_fd_pr__pfet_01v8 m=1 nf=1 w=0.9 l=0.15 pd=2.1 ps=2.1 as=0.3375 ad=0.3375
Xnmos3 Z B net1 gnd sky130_fd_pr__nfet_01v8 m=1 nf=1 w=0.72 l=0.15 pd=1.74 ps=1.74 as=0.27 ad=0.27
Xnmos4 net1 A gnd gnd sky130_fd_pr__nfet_01v8 m=1 nf=1 w=0.72 l=0.15 pd=1.74 ps=1.74 as=0.27 ad=0.27
.ENDS pnand2_1_no_p_no_n_align_same_line

.SUBCKT pnand3_1_no_p_no_n_align_same_line A B C Z vdd gnd
Xpmos1 vdd A Z vdd sky130_fd_pr__pfet_01v8 m=1 nf=1 w=0.9 l=0.15 pd=2.1 ps=2.1 as=0.3375 ad=0.3375
Xpmos2 Z B vdd vdd sky130_fd_pr__pfet_01v8 m=1 nf=1 w=0.9 l=0.15 pd=2.1 ps=2.1 as=0.3375 ad=0.3375
Xpmos3 Z C vdd vdd sky130_fd_pr__pfet_01v8 m=1 nf=1 w=0.9 l=0.15 pd=2.1 ps=2.1 as=0.3375 ad=0.3375
Xnmos4 Z C net1 gnd sky130_fd_pr__nfet_01v8 m=1 nf=1 w=0.9 l=0.15 pd=2.1 ps=2.1 as=0.3375 ad=0.3375
Xnmos5 net1 B net2 gnd sky130_fd_pr__nfet_01v8 m=1 nf=1 w=0.9 l=0.15 pd=2.1 ps=2.1 as=0.3375 ad=0.3375
Xnmos6 net2 A gnd gnd sky130_fd_pr__nfet_01v8 m=1 nf=1 w=0.9 l=0.15 pd=2.1 ps=2.1 as=0.3375 ad=0.3375
.ENDS pnand3_1_no_p_no_n_align_same_line