*FIRST LINE IS A COMMENT

.SUBCKT reram_bitcell_7 bl br wl gnd
Xaccess be wl br gnd sky130_fd_pr__nfet_01v8 m=1 nf=4 w=7.0 l=0.15 pd=3.8 ps=3.8 as=0.65625 ad=0.65625
Xmem bl be sky130_fd_pr__reram_reram_cell
.ENDS reram_bitcell_7
.subckt ms_flop_clk_buf din dout dout_bar clk vdd gnd
xm1 clk_buf clk_bar gnd gnd sky130_fd_pr__nfet_01v8 l=0.15 w=0.36 nf=1
+   sa=0 sb=0 sd=0 mult=1 m=1
xm8 clk_buf clk_bar vdd vdd sky130_fd_pr__pfet_01v8 l=0.15 w=0.9 nf=1
+   sa=0 sb=0 sd=0 mult=1 m=1
xm2 clk_bar clk gnd gnd sky130_fd_pr__nfet_01v8 l=0.15 w=0.36 nf=1
+ sa=0 sb=0 sd=0 mult=1 m=1
xm3 clk_bar clk vdd vdd sky130_fd_pr__pfet_01v8 l=0.15 w=0.9 nf=1
+ sa=0 sb=0 sd=0 mult=1 m=1
x1 din clk_buf vdd gnd lout lout_bar clk_bar dlatch
x2 lout_bar clk_bar vdd gnd dout_bar dout clk_buf dlatch
.ends
.subckt dlatch  din clk vdd gnd dout dout_bar clk_bar
xm1 dout dout_bar gnd gnd sky130_fd_pr__nfet_01v8 l=0.15 w=0.61 nf=1
+   sa=0 sb=0 sd=0 mult=1 m=1
xm2 dout_bar int gnd gnd sky130_fd_pr__nfet_01v8 l=0.15 w=0.61 nf=1
+   sa=0 sb=0 sd=0 mult=1 m=1
xm3 int clk dout gnd sky130_fd_pr__nfet_01v8 l=0.15 w=0.36 nf=1
+ sa=0 sb=0 sd=0 mult=1 m=1
xm5 int clk_bar dout vdd sky130_fd_pr__pfet_01v8 l=0.15 w=0.6 nf=1
+ sa=0 sb=0 sd=0 mult=1 m=1
xm4 int clk_bar din gnd sky130_fd_pr__nfet_01v8 l=0.15 w=0.36 nf=1
+ sa=0 sb=0 sd=0 mult=1 m=1
xm6 int clk din vdd sky130_fd_pr__pfet_01v8 l=0.15 w=0.6 nf=1
+ sa=0 sb=0 sd=0 mult=1 m=1
xm7 dout_bar int vdd vdd sky130_fd_pr__pfet_01v8 l=0.15 w=1.22 nf=1
+   sa=0 sb=0 sd=0 mult=1 m=1
xm8 dout dout_bar vdd vdd sky130_fd_pr__pfet_01v8 l=0.15 w=1.22 nf=1
+   sa=0 sb=0 sd=0 mult=1 m=1
.ends

.SUBCKT flop_array_c32_w32_ms_flop_clk_buf_ms_flop_clk_buf_tap din[0] din[1] din[2] din[3] din[4] din[5] din[6] din[7] din[8] din[9] din[10] din[11] din[12] din[13] din[14] din[15] din[16] din[17] din[18] din[19] din[20] din[21] din[22] din[23] din[24] din[25] din[26] din[27] din[28] din[29] din[30] din[31] dout[0] dout_bar[0] dout[1] dout_bar[1] dout[2] dout_bar[2] dout[3] dout_bar[3] dout[4] dout_bar[4] dout[5] dout_bar[5] dout[6] dout_bar[6] dout[7] dout_bar[7] dout[8] dout_bar[8] dout[9] dout_bar[9] dout[10] dout_bar[10] dout[11] dout_bar[11] dout[12] dout_bar[12] dout[13] dout_bar[13] dout[14] dout_bar[14] dout[15] dout_bar[15] dout[16] dout_bar[16] dout[17] dout_bar[17] dout[18] dout_bar[18] dout[19] dout_bar[19] dout[20] dout_bar[20] dout[21] dout_bar[21] dout[22] dout_bar[22] dout[23] dout_bar[23] dout[24] dout_bar[24] dout[25] dout_bar[25] dout[26] dout_bar[26] dout[27] dout_bar[27] dout[28] dout_bar[28] dout[29] dout_bar[29] dout[30] dout_bar[30] dout[31] dout_bar[31] clk vdd gnd
Xmod_0 din[0] dout[0] dout_bar[0] clk vdd gnd ms_flop_clk_buf
Xmod_1 din[1] dout[1] dout_bar[1] clk vdd gnd ms_flop_clk_buf
Xmod_2 din[2] dout[2] dout_bar[2] clk vdd gnd ms_flop_clk_buf
Xmod_3 din[3] dout[3] dout_bar[3] clk vdd gnd ms_flop_clk_buf
Xmod_4 din[4] dout[4] dout_bar[4] clk vdd gnd ms_flop_clk_buf
Xmod_5 din[5] dout[5] dout_bar[5] clk vdd gnd ms_flop_clk_buf
Xmod_6 din[6] dout[6] dout_bar[6] clk vdd gnd ms_flop_clk_buf
Xmod_7 din[7] dout[7] dout_bar[7] clk vdd gnd ms_flop_clk_buf
Xmod_8 din[8] dout[8] dout_bar[8] clk vdd gnd ms_flop_clk_buf
Xmod_9 din[9] dout[9] dout_bar[9] clk vdd gnd ms_flop_clk_buf
Xmod_10 din[10] dout[10] dout_bar[10] clk vdd gnd ms_flop_clk_buf
Xmod_11 din[11] dout[11] dout_bar[11] clk vdd gnd ms_flop_clk_buf
Xmod_12 din[12] dout[12] dout_bar[12] clk vdd gnd ms_flop_clk_buf
Xmod_13 din[13] dout[13] dout_bar[13] clk vdd gnd ms_flop_clk_buf
Xmod_14 din[14] dout[14] dout_bar[14] clk vdd gnd ms_flop_clk_buf
Xmod_15 din[15] dout[15] dout_bar[15] clk vdd gnd ms_flop_clk_buf
Xmod_16 din[16] dout[16] dout_bar[16] clk vdd gnd ms_flop_clk_buf
Xmod_17 din[17] dout[17] dout_bar[17] clk vdd gnd ms_flop_clk_buf
Xmod_18 din[18] dout[18] dout_bar[18] clk vdd gnd ms_flop_clk_buf
Xmod_19 din[19] dout[19] dout_bar[19] clk vdd gnd ms_flop_clk_buf
Xmod_20 din[20] dout[20] dout_bar[20] clk vdd gnd ms_flop_clk_buf
Xmod_21 din[21] dout[21] dout_bar[21] clk vdd gnd ms_flop_clk_buf
Xmod_22 din[22] dout[22] dout_bar[22] clk vdd gnd ms_flop_clk_buf
Xmod_23 din[23] dout[23] dout_bar[23] clk vdd gnd ms_flop_clk_buf
Xmod_24 din[24] dout[24] dout_bar[24] clk vdd gnd ms_flop_clk_buf
Xmod_25 din[25] dout[25] dout_bar[25] clk vdd gnd ms_flop_clk_buf
Xmod_26 din[26] dout[26] dout_bar[26] clk vdd gnd ms_flop_clk_buf
Xmod_27 din[27] dout[27] dout_bar[27] clk vdd gnd ms_flop_clk_buf
Xmod_28 din[28] dout[28] dout_bar[28] clk vdd gnd ms_flop_clk_buf
Xmod_29 din[29] dout[29] dout_bar[29] clk vdd gnd ms_flop_clk_buf
Xmod_30 din[30] dout[30] dout_bar[30] clk vdd gnd ms_flop_clk_buf
Xmod_31 din[31] dout[31] dout_bar[31] clk vdd gnd ms_flop_clk_buf
.ENDS flop_array_c32_w32_ms_flop_clk_buf_ms_flop_clk_buf_tap
.subckt write_driver_mux_logic mask en data data_bar bl_p bl_n br_p br_n gnd vdd
xm4 mask_en_bar en net1 gnd sky130_fd_pr__nfet_01v8 l=0.15 w=0.72 nf=1
+   sa=0 sb=0 sd=0 mult=1 m=1
xm1 net1 mask gnd gnd sky130_fd_pr__nfet_01v8 l=0.15 w=0.72 nf=1
+ sa=0 sb=0 sd=0 mult=1 m=1
xm2 mask_en_bar en vdd vdd sky130_fd_pr__pfet_01v8 l=0.15 w=0.9 nf=1
+   sa=0 sb=0 sd=0 mult=1 m=1
xm3 mask_en_bar mask vdd vdd sky130_fd_pr__pfet_01v8 l=0.15 w=0.9 nf=1
+   sa=0 sb=0 sd=0 mult=1 m=1
xm5 mask_en mask_en_bar gnd gnd sky130_fd_pr__nfet_01v8 l=0.15 w=0.72 nf=1
+   sa=0 sb=0 sd=0 mult=1 m=1
xm7 br_p data_bar net2 gnd sky130_fd_pr__nfet_01v8 l=0.15 w=0.72 nf=1
+   sa=0 sb=0 sd=0 mult=1 m=1
xm8 net2 mask_en gnd gnd sky130_fd_pr__nfet_01v8 l=0.15 w=0.72 nf=1
+   sa=0 sb=0 sd=0 mult=1 m=1
xm9 br_p data_bar vdd vdd sky130_fd_pr__pfet_01v8 l=0.15 w=0.9 nf=1
+   sa=0 sb=0 sd=0 mult=1 m=1
xm10 br_p mask_en vdd vdd sky130_fd_pr__pfet_01v8 l=0.15 w=0.9 nf=1
+   sa=0 sb=0 sd=0 mult=1 m=1
xm11 bl_p data net3 gnd sky130_fd_pr__nfet_01v8 l=0.15 w=0.72 nf=1
+ sa=0 sb=0 sd=0 mult=1 m=1
xm12 net3 mask_en gnd gnd sky130_fd_pr__nfet_01v8 l=0.15 w=0.72 nf=1
+   sa=0 sb=0 sd=0 mult=1 m=1
xm13 bl_p data vdd vdd sky130_fd_pr__pfet_01v8 l=0.15 w=0.9 nf=1
+ sa=0 sb=0 sd=0 mult=1 m=1
xm14 bl_p mask_en vdd vdd sky130_fd_pr__pfet_01v8 l=0.15 w=0.9 nf=1
+   sa=0 sb=0 sd=0 mult=1 m=1
xm16 br_n mask_en_bar gnd gnd sky130_fd_pr__nfet_01v8 l=0.15 w=0.72 nf=1
+   sa=0 sb=0 sd=0 mult=1 m=1
xm18 br_n data_bar net4 vdd sky130_fd_pr__pfet_01v8 l=0.15 w=1.8 nf=1
+   sa=0 sb=0 sd=0 mult=1 m=1
xm15 br_n data_bar gnd gnd sky130_fd_pr__nfet_01v8 l=0.15 w=0.72 nf=1
+   sa=0 sb=0 sd=0 mult=1 m=1
xm17 net4 mask_en_bar vdd vdd sky130_fd_pr__pfet_01v8 l=0.15 w=1.8 nf=1
+   sa=0 sb=0 sd=0 mult=1 m=1
xm19 bl_n mask_en_bar gnd gnd sky130_fd_pr__nfet_01v8 l=0.15 w=0.72 nf=1
+   sa=0 sb=0 sd=0 mult=1 m=1
xm20 bl_n data net5 vdd sky130_fd_pr__pfet_01v8 l=0.15 w=1.8 nf=1
+ sa=0 sb=0 sd=0 mult=1 m=1
xm21 bl_n data gnd gnd sky130_fd_pr__nfet_01v8 l=0.15 w=0.72 nf=1
+ sa=0 sb=0 sd=0 mult=1 m=1
xm22 net5 mask_en_bar vdd vdd sky130_fd_pr__pfet_01v8 l=0.15 w=1.8 nf=1
+   sa=0 sb=0 sd=0 mult=1 m=1
xm6 mask_en mask_en_bar vdd vdd sky130_fd_pr__pfet_01v8 l=0.15 w=1.5 nf=1
+   sa=0 sb=0 sd=0 mult=1 m=1
.ends

* ptx X{0} {1} sky130_fd_pr__nfet_01v8 m=1 nf=2 w=3.6 l=0.15 pd=3.9 ps=3.9 as=0.675 ad=0.675

* ptx X{0} {1} sky130_fd_pr__pfet_01v8 m=1 nf=2 w=9.0 l=0.15 pd=9.3 ps=9.3 as=1.6875 ad=1.6875

* ptx X{0} {1} sky130_fd_pr__nfet_01v8 m=1 nf=2 w=3.6 l=0.15 pd=3.9 ps=3.9 as=0.675 ad=0.675

* ptx X{0} {1} sky130_fd_pr__pfet_01v8 m=1 nf=2 w=9.0 l=0.15 pd=9.3 ps=9.3 as=1.6875 ad=1.6875

.SUBCKT write_driver_sep_vdd_10 data data_bar mask en bl br vdd vdd_write_bl vdd_write_br gnd
Xlogic mask en data data_bar bl_p bl_n br_p br_n gnd vdd write_driver_mux_logic
Xbl_nmos bl bl_n gnd gnd sky130_fd_pr__nfet_01v8 m=1 nf=2 w=3.6 l=0.15 pd=3.9 ps=3.9 as=0.675 ad=0.675
Xbr_nmos br br_n gnd gnd sky130_fd_pr__nfet_01v8 m=1 nf=2 w=3.6 l=0.15 pd=3.9 ps=3.9 as=0.675 ad=0.675
Xbl_pmos bl bl_p vdd_write_bl vdd_write_bl sky130_fd_pr__pfet_01v8 m=1 nf=2 w=9.0 l=0.15 pd=9.3 ps=9.3 as=1.6875 ad=1.6875
Xbr_pmos br br_p vdd_write_br vdd_write_bl sky130_fd_pr__pfet_01v8 m=1 nf=2 w=9.0 l=0.15 pd=9.3 ps=9.3 as=1.6875 ad=1.6875
.ENDS write_driver_sep_vdd_10

.SUBCKT write_driver_array bl[0] bl[1] bl[2] bl[3] bl[4] bl[5] bl[6] bl[7] bl[8] bl[9] bl[10] bl[11] bl[12] bl[13] bl[14] bl[15] bl[16] bl[17] bl[18] bl[19] bl[20] bl[21] bl[22] bl[23] bl[24] bl[25] bl[26] bl[27] bl[28] bl[29] bl[30] bl[31] br[0] br[1] br[2] br[3] br[4] br[5] br[6] br[7] br[8] br[9] br[10] br[11] br[12] br[13] br[14] br[15] br[16] br[17] br[18] br[19] br[20] br[21] br[22] br[23] br[24] br[25] br[26] br[27] br[28] br[29] br[30] br[31] data[0] data[1] data[2] data[3] data[4] data[5] data[6] data[7] data[8] data[9] data[10] data[11] data[12] data[13] data[14] data[15] data[16] data[17] data[18] data[19] data[20] data[21] data[22] data[23] data[24] data[25] data[26] data[27] data[28] data[29] data[30] data[31] data_bar[0] data_bar[1] data_bar[2] data_bar[3] data_bar[4] data_bar[5] data_bar[6] data_bar[7] data_bar[8] data_bar[9] data_bar[10] data_bar[11] data_bar[12] data_bar[13] data_bar[14] data_bar[15] data_bar[16] data_bar[17] data_bar[18] data_bar[19] data_bar[20] data_bar[21] data_bar[22] data_bar[23] data_bar[24] data_bar[25] data_bar[26] data_bar[27] data_bar[28] data_bar[29] data_bar[30] data_bar[31] mask[0] mask[1] mask[2] mask[3] mask[4] mask[5] mask[6] mask[7] mask[8] mask[9] mask[10] mask[11] mask[12] mask[13] mask[14] mask[15] mask[16] mask[17] mask[18] mask[19] mask[20] mask[21] mask[22] mask[23] mask[24] mask[25] mask[26] mask[27] mask[28] mask[29] mask[30] mask[31] en vdd vdd_write_bl vdd_write_br gnd
Xmod_0 data[0] data_bar[0] mask[0] en bl[0] br[0] vdd vdd_write_bl vdd_write_br gnd write_driver_sep_vdd_10
Xmod_1 data[1] data_bar[1] mask[1] en bl[1] br[1] vdd vdd_write_bl vdd_write_br gnd write_driver_sep_vdd_10
Xmod_2 data[2] data_bar[2] mask[2] en bl[2] br[2] vdd vdd_write_bl vdd_write_br gnd write_driver_sep_vdd_10
Xmod_3 data[3] data_bar[3] mask[3] en bl[3] br[3] vdd vdd_write_bl vdd_write_br gnd write_driver_sep_vdd_10
Xmod_4 data[4] data_bar[4] mask[4] en bl[4] br[4] vdd vdd_write_bl vdd_write_br gnd write_driver_sep_vdd_10
Xmod_5 data[5] data_bar[5] mask[5] en bl[5] br[5] vdd vdd_write_bl vdd_write_br gnd write_driver_sep_vdd_10
Xmod_6 data[6] data_bar[6] mask[6] en bl[6] br[6] vdd vdd_write_bl vdd_write_br gnd write_driver_sep_vdd_10
Xmod_7 data[7] data_bar[7] mask[7] en bl[7] br[7] vdd vdd_write_bl vdd_write_br gnd write_driver_sep_vdd_10
Xmod_8 data[8] data_bar[8] mask[8] en bl[8] br[8] vdd vdd_write_bl vdd_write_br gnd write_driver_sep_vdd_10
Xmod_9 data[9] data_bar[9] mask[9] en bl[9] br[9] vdd vdd_write_bl vdd_write_br gnd write_driver_sep_vdd_10
Xmod_10 data[10] data_bar[10] mask[10] en bl[10] br[10] vdd vdd_write_bl vdd_write_br gnd write_driver_sep_vdd_10
Xmod_11 data[11] data_bar[11] mask[11] en bl[11] br[11] vdd vdd_write_bl vdd_write_br gnd write_driver_sep_vdd_10
Xmod_12 data[12] data_bar[12] mask[12] en bl[12] br[12] vdd vdd_write_bl vdd_write_br gnd write_driver_sep_vdd_10
Xmod_13 data[13] data_bar[13] mask[13] en bl[13] br[13] vdd vdd_write_bl vdd_write_br gnd write_driver_sep_vdd_10
Xmod_14 data[14] data_bar[14] mask[14] en bl[14] br[14] vdd vdd_write_bl vdd_write_br gnd write_driver_sep_vdd_10
Xmod_15 data[15] data_bar[15] mask[15] en bl[15] br[15] vdd vdd_write_bl vdd_write_br gnd write_driver_sep_vdd_10
Xmod_16 data[16] data_bar[16] mask[16] en bl[16] br[16] vdd vdd_write_bl vdd_write_br gnd write_driver_sep_vdd_10
Xmod_17 data[17] data_bar[17] mask[17] en bl[17] br[17] vdd vdd_write_bl vdd_write_br gnd write_driver_sep_vdd_10
Xmod_18 data[18] data_bar[18] mask[18] en bl[18] br[18] vdd vdd_write_bl vdd_write_br gnd write_driver_sep_vdd_10
Xmod_19 data[19] data_bar[19] mask[19] en bl[19] br[19] vdd vdd_write_bl vdd_write_br gnd write_driver_sep_vdd_10
Xmod_20 data[20] data_bar[20] mask[20] en bl[20] br[20] vdd vdd_write_bl vdd_write_br gnd write_driver_sep_vdd_10
Xmod_21 data[21] data_bar[21] mask[21] en bl[21] br[21] vdd vdd_write_bl vdd_write_br gnd write_driver_sep_vdd_10
Xmod_22 data[22] data_bar[22] mask[22] en bl[22] br[22] vdd vdd_write_bl vdd_write_br gnd write_driver_sep_vdd_10
Xmod_23 data[23] data_bar[23] mask[23] en bl[23] br[23] vdd vdd_write_bl vdd_write_br gnd write_driver_sep_vdd_10
Xmod_24 data[24] data_bar[24] mask[24] en bl[24] br[24] vdd vdd_write_bl vdd_write_br gnd write_driver_sep_vdd_10
Xmod_25 data[25] data_bar[25] mask[25] en bl[25] br[25] vdd vdd_write_bl vdd_write_br gnd write_driver_sep_vdd_10
Xmod_26 data[26] data_bar[26] mask[26] en bl[26] br[26] vdd vdd_write_bl vdd_write_br gnd write_driver_sep_vdd_10
Xmod_27 data[27] data_bar[27] mask[27] en bl[27] br[27] vdd vdd_write_bl vdd_write_br gnd write_driver_sep_vdd_10
Xmod_28 data[28] data_bar[28] mask[28] en bl[28] br[28] vdd vdd_write_bl vdd_write_br gnd write_driver_sep_vdd_10
Xmod_29 data[29] data_bar[29] mask[29] en bl[29] br[29] vdd vdd_write_bl vdd_write_br gnd write_driver_sep_vdd_10
Xmod_30 data[30] data_bar[30] mask[30] en bl[30] br[30] vdd vdd_write_bl vdd_write_br gnd write_driver_sep_vdd_10
Xmod_31 data[31] data_bar[31] mask[31] en bl[31] br[31] vdd vdd_write_bl vdd_write_br gnd write_driver_sep_vdd_10
.ENDS write_driver_array

.SUBCKT bitcell_array bl[0] br[0] bl[1] br[1] bl[2] br[2] bl[3] br[3] bl[4] br[4] bl[5] br[5] bl[6] br[6] bl[7] br[7] bl[8] br[8] bl[9] br[9] bl[10] br[10] bl[11] br[11] bl[12] br[12] bl[13] br[13] bl[14] br[14] bl[15] br[15] bl[16] br[16] bl[17] br[17] bl[18] br[18] bl[19] br[19] bl[20] br[20] bl[21] br[21] bl[22] br[22] bl[23] br[23] bl[24] br[24] bl[25] br[25] bl[26] br[26] bl[27] br[27] bl[28] br[28] bl[29] br[29] bl[30] br[30] bl[31] br[31] wl[0] wl[1] wl[2] wl[3] wl[4] wl[5] wl[6] wl[7] wl[8] wl[9] wl[10] wl[11] wl[12] wl[13] wl[14] wl[15] wl[16] wl[17] wl[18] wl[19] wl[20] wl[21] wl[22] wl[23] wl[24] wl[25] wl[26] wl[27] wl[28] wl[29] wl[30] wl[31] vdd gnd
Xbit_r0_c0 bl[0] br[0] wl[0] gnd reram_bitcell_7
Xbit_r1_c0 bl[0] br[0] wl[1] gnd reram_bitcell_7
Xbit_r2_c0 bl[0] br[0] wl[2] gnd reram_bitcell_7
Xbit_r3_c0 bl[0] br[0] wl[3] gnd reram_bitcell_7
Xbit_r4_c0 bl[0] br[0] wl[4] gnd reram_bitcell_7
Xbit_r5_c0 bl[0] br[0] wl[5] gnd reram_bitcell_7
Xbit_r6_c0 bl[0] br[0] wl[6] gnd reram_bitcell_7
Xbit_r7_c0 bl[0] br[0] wl[7] gnd reram_bitcell_7
Xbit_r8_c0 bl[0] br[0] wl[8] gnd reram_bitcell_7
Xbit_r9_c0 bl[0] br[0] wl[9] gnd reram_bitcell_7
Xbit_r10_c0 bl[0] br[0] wl[10] gnd reram_bitcell_7
Xbit_r11_c0 bl[0] br[0] wl[11] gnd reram_bitcell_7
Xbit_r12_c0 bl[0] br[0] wl[12] gnd reram_bitcell_7
Xbit_r13_c0 bl[0] br[0] wl[13] gnd reram_bitcell_7
Xbit_r14_c0 bl[0] br[0] wl[14] gnd reram_bitcell_7
Xbit_r15_c0 bl[0] br[0] wl[15] gnd reram_bitcell_7
Xbit_r16_c0 bl[0] br[0] wl[16] gnd reram_bitcell_7
Xbit_r17_c0 bl[0] br[0] wl[17] gnd reram_bitcell_7
Xbit_r18_c0 bl[0] br[0] wl[18] gnd reram_bitcell_7
Xbit_r19_c0 bl[0] br[0] wl[19] gnd reram_bitcell_7
Xbit_r20_c0 bl[0] br[0] wl[20] gnd reram_bitcell_7
Xbit_r21_c0 bl[0] br[0] wl[21] gnd reram_bitcell_7
Xbit_r22_c0 bl[0] br[0] wl[22] gnd reram_bitcell_7
Xbit_r23_c0 bl[0] br[0] wl[23] gnd reram_bitcell_7
Xbit_r24_c0 bl[0] br[0] wl[24] gnd reram_bitcell_7
Xbit_r25_c0 bl[0] br[0] wl[25] gnd reram_bitcell_7
Xbit_r26_c0 bl[0] br[0] wl[26] gnd reram_bitcell_7
Xbit_r27_c0 bl[0] br[0] wl[27] gnd reram_bitcell_7
Xbit_r28_c0 bl[0] br[0] wl[28] gnd reram_bitcell_7
Xbit_r29_c0 bl[0] br[0] wl[29] gnd reram_bitcell_7
Xbit_r30_c0 bl[0] br[0] wl[30] gnd reram_bitcell_7
Xbit_r31_c0 bl[0] br[0] wl[31] gnd reram_bitcell_7
Xbit_r0_c1 bl[1] br[1] wl[0] gnd reram_bitcell_7
Xbit_r1_c1 bl[1] br[1] wl[1] gnd reram_bitcell_7
Xbit_r2_c1 bl[1] br[1] wl[2] gnd reram_bitcell_7
Xbit_r3_c1 bl[1] br[1] wl[3] gnd reram_bitcell_7
Xbit_r4_c1 bl[1] br[1] wl[4] gnd reram_bitcell_7
Xbit_r5_c1 bl[1] br[1] wl[5] gnd reram_bitcell_7
Xbit_r6_c1 bl[1] br[1] wl[6] gnd reram_bitcell_7
Xbit_r7_c1 bl[1] br[1] wl[7] gnd reram_bitcell_7
Xbit_r8_c1 bl[1] br[1] wl[8] gnd reram_bitcell_7
Xbit_r9_c1 bl[1] br[1] wl[9] gnd reram_bitcell_7
Xbit_r10_c1 bl[1] br[1] wl[10] gnd reram_bitcell_7
Xbit_r11_c1 bl[1] br[1] wl[11] gnd reram_bitcell_7
Xbit_r12_c1 bl[1] br[1] wl[12] gnd reram_bitcell_7
Xbit_r13_c1 bl[1] br[1] wl[13] gnd reram_bitcell_7
Xbit_r14_c1 bl[1] br[1] wl[14] gnd reram_bitcell_7
Xbit_r15_c1 bl[1] br[1] wl[15] gnd reram_bitcell_7
Xbit_r16_c1 bl[1] br[1] wl[16] gnd reram_bitcell_7
Xbit_r17_c1 bl[1] br[1] wl[17] gnd reram_bitcell_7
Xbit_r18_c1 bl[1] br[1] wl[18] gnd reram_bitcell_7
Xbit_r19_c1 bl[1] br[1] wl[19] gnd reram_bitcell_7
Xbit_r20_c1 bl[1] br[1] wl[20] gnd reram_bitcell_7
Xbit_r21_c1 bl[1] br[1] wl[21] gnd reram_bitcell_7
Xbit_r22_c1 bl[1] br[1] wl[22] gnd reram_bitcell_7
Xbit_r23_c1 bl[1] br[1] wl[23] gnd reram_bitcell_7
Xbit_r24_c1 bl[1] br[1] wl[24] gnd reram_bitcell_7
Xbit_r25_c1 bl[1] br[1] wl[25] gnd reram_bitcell_7
Xbit_r26_c1 bl[1] br[1] wl[26] gnd reram_bitcell_7
Xbit_r27_c1 bl[1] br[1] wl[27] gnd reram_bitcell_7
Xbit_r28_c1 bl[1] br[1] wl[28] gnd reram_bitcell_7
Xbit_r29_c1 bl[1] br[1] wl[29] gnd reram_bitcell_7
Xbit_r30_c1 bl[1] br[1] wl[30] gnd reram_bitcell_7
Xbit_r31_c1 bl[1] br[1] wl[31] gnd reram_bitcell_7
Xbit_r0_c2 bl[2] br[2] wl[0] gnd reram_bitcell_7
Xbit_r1_c2 bl[2] br[2] wl[1] gnd reram_bitcell_7
Xbit_r2_c2 bl[2] br[2] wl[2] gnd reram_bitcell_7
Xbit_r3_c2 bl[2] br[2] wl[3] gnd reram_bitcell_7
Xbit_r4_c2 bl[2] br[2] wl[4] gnd reram_bitcell_7
Xbit_r5_c2 bl[2] br[2] wl[5] gnd reram_bitcell_7
Xbit_r6_c2 bl[2] br[2] wl[6] gnd reram_bitcell_7
Xbit_r7_c2 bl[2] br[2] wl[7] gnd reram_bitcell_7
Xbit_r8_c2 bl[2] br[2] wl[8] gnd reram_bitcell_7
Xbit_r9_c2 bl[2] br[2] wl[9] gnd reram_bitcell_7
Xbit_r10_c2 bl[2] br[2] wl[10] gnd reram_bitcell_7
Xbit_r11_c2 bl[2] br[2] wl[11] gnd reram_bitcell_7
Xbit_r12_c2 bl[2] br[2] wl[12] gnd reram_bitcell_7
Xbit_r13_c2 bl[2] br[2] wl[13] gnd reram_bitcell_7
Xbit_r14_c2 bl[2] br[2] wl[14] gnd reram_bitcell_7
Xbit_r15_c2 bl[2] br[2] wl[15] gnd reram_bitcell_7
Xbit_r16_c2 bl[2] br[2] wl[16] gnd reram_bitcell_7
Xbit_r17_c2 bl[2] br[2] wl[17] gnd reram_bitcell_7
Xbit_r18_c2 bl[2] br[2] wl[18] gnd reram_bitcell_7
Xbit_r19_c2 bl[2] br[2] wl[19] gnd reram_bitcell_7
Xbit_r20_c2 bl[2] br[2] wl[20] gnd reram_bitcell_7
Xbit_r21_c2 bl[2] br[2] wl[21] gnd reram_bitcell_7
Xbit_r22_c2 bl[2] br[2] wl[22] gnd reram_bitcell_7
Xbit_r23_c2 bl[2] br[2] wl[23] gnd reram_bitcell_7
Xbit_r24_c2 bl[2] br[2] wl[24] gnd reram_bitcell_7
Xbit_r25_c2 bl[2] br[2] wl[25] gnd reram_bitcell_7
Xbit_r26_c2 bl[2] br[2] wl[26] gnd reram_bitcell_7
Xbit_r27_c2 bl[2] br[2] wl[27] gnd reram_bitcell_7
Xbit_r28_c2 bl[2] br[2] wl[28] gnd reram_bitcell_7
Xbit_r29_c2 bl[2] br[2] wl[29] gnd reram_bitcell_7
Xbit_r30_c2 bl[2] br[2] wl[30] gnd reram_bitcell_7
Xbit_r31_c2 bl[2] br[2] wl[31] gnd reram_bitcell_7
Xbit_r0_c3 bl[3] br[3] wl[0] gnd reram_bitcell_7
Xbit_r1_c3 bl[3] br[3] wl[1] gnd reram_bitcell_7
Xbit_r2_c3 bl[3] br[3] wl[2] gnd reram_bitcell_7
Xbit_r3_c3 bl[3] br[3] wl[3] gnd reram_bitcell_7
Xbit_r4_c3 bl[3] br[3] wl[4] gnd reram_bitcell_7
Xbit_r5_c3 bl[3] br[3] wl[5] gnd reram_bitcell_7
Xbit_r6_c3 bl[3] br[3] wl[6] gnd reram_bitcell_7
Xbit_r7_c3 bl[3] br[3] wl[7] gnd reram_bitcell_7
Xbit_r8_c3 bl[3] br[3] wl[8] gnd reram_bitcell_7
Xbit_r9_c3 bl[3] br[3] wl[9] gnd reram_bitcell_7
Xbit_r10_c3 bl[3] br[3] wl[10] gnd reram_bitcell_7
Xbit_r11_c3 bl[3] br[3] wl[11] gnd reram_bitcell_7
Xbit_r12_c3 bl[3] br[3] wl[12] gnd reram_bitcell_7
Xbit_r13_c3 bl[3] br[3] wl[13] gnd reram_bitcell_7
Xbit_r14_c3 bl[3] br[3] wl[14] gnd reram_bitcell_7
Xbit_r15_c3 bl[3] br[3] wl[15] gnd reram_bitcell_7
Xbit_r16_c3 bl[3] br[3] wl[16] gnd reram_bitcell_7
Xbit_r17_c3 bl[3] br[3] wl[17] gnd reram_bitcell_7
Xbit_r18_c3 bl[3] br[3] wl[18] gnd reram_bitcell_7
Xbit_r19_c3 bl[3] br[3] wl[19] gnd reram_bitcell_7
Xbit_r20_c3 bl[3] br[3] wl[20] gnd reram_bitcell_7
Xbit_r21_c3 bl[3] br[3] wl[21] gnd reram_bitcell_7
Xbit_r22_c3 bl[3] br[3] wl[22] gnd reram_bitcell_7
Xbit_r23_c3 bl[3] br[3] wl[23] gnd reram_bitcell_7
Xbit_r24_c3 bl[3] br[3] wl[24] gnd reram_bitcell_7
Xbit_r25_c3 bl[3] br[3] wl[25] gnd reram_bitcell_7
Xbit_r26_c3 bl[3] br[3] wl[26] gnd reram_bitcell_7
Xbit_r27_c3 bl[3] br[3] wl[27] gnd reram_bitcell_7
Xbit_r28_c3 bl[3] br[3] wl[28] gnd reram_bitcell_7
Xbit_r29_c3 bl[3] br[3] wl[29] gnd reram_bitcell_7
Xbit_r30_c3 bl[3] br[3] wl[30] gnd reram_bitcell_7
Xbit_r31_c3 bl[3] br[3] wl[31] gnd reram_bitcell_7
Xbit_r0_c4 bl[4] br[4] wl[0] gnd reram_bitcell_7
Xbit_r1_c4 bl[4] br[4] wl[1] gnd reram_bitcell_7
Xbit_r2_c4 bl[4] br[4] wl[2] gnd reram_bitcell_7
Xbit_r3_c4 bl[4] br[4] wl[3] gnd reram_bitcell_7
Xbit_r4_c4 bl[4] br[4] wl[4] gnd reram_bitcell_7
Xbit_r5_c4 bl[4] br[4] wl[5] gnd reram_bitcell_7
Xbit_r6_c4 bl[4] br[4] wl[6] gnd reram_bitcell_7
Xbit_r7_c4 bl[4] br[4] wl[7] gnd reram_bitcell_7
Xbit_r8_c4 bl[4] br[4] wl[8] gnd reram_bitcell_7
Xbit_r9_c4 bl[4] br[4] wl[9] gnd reram_bitcell_7
Xbit_r10_c4 bl[4] br[4] wl[10] gnd reram_bitcell_7
Xbit_r11_c4 bl[4] br[4] wl[11] gnd reram_bitcell_7
Xbit_r12_c4 bl[4] br[4] wl[12] gnd reram_bitcell_7
Xbit_r13_c4 bl[4] br[4] wl[13] gnd reram_bitcell_7
Xbit_r14_c4 bl[4] br[4] wl[14] gnd reram_bitcell_7
Xbit_r15_c4 bl[4] br[4] wl[15] gnd reram_bitcell_7
Xbit_r16_c4 bl[4] br[4] wl[16] gnd reram_bitcell_7
Xbit_r17_c4 bl[4] br[4] wl[17] gnd reram_bitcell_7
Xbit_r18_c4 bl[4] br[4] wl[18] gnd reram_bitcell_7
Xbit_r19_c4 bl[4] br[4] wl[19] gnd reram_bitcell_7
Xbit_r20_c4 bl[4] br[4] wl[20] gnd reram_bitcell_7
Xbit_r21_c4 bl[4] br[4] wl[21] gnd reram_bitcell_7
Xbit_r22_c4 bl[4] br[4] wl[22] gnd reram_bitcell_7
Xbit_r23_c4 bl[4] br[4] wl[23] gnd reram_bitcell_7
Xbit_r24_c4 bl[4] br[4] wl[24] gnd reram_bitcell_7
Xbit_r25_c4 bl[4] br[4] wl[25] gnd reram_bitcell_7
Xbit_r26_c4 bl[4] br[4] wl[26] gnd reram_bitcell_7
Xbit_r27_c4 bl[4] br[4] wl[27] gnd reram_bitcell_7
Xbit_r28_c4 bl[4] br[4] wl[28] gnd reram_bitcell_7
Xbit_r29_c4 bl[4] br[4] wl[29] gnd reram_bitcell_7
Xbit_r30_c4 bl[4] br[4] wl[30] gnd reram_bitcell_7
Xbit_r31_c4 bl[4] br[4] wl[31] gnd reram_bitcell_7
Xbit_r0_c5 bl[5] br[5] wl[0] gnd reram_bitcell_7
Xbit_r1_c5 bl[5] br[5] wl[1] gnd reram_bitcell_7
Xbit_r2_c5 bl[5] br[5] wl[2] gnd reram_bitcell_7
Xbit_r3_c5 bl[5] br[5] wl[3] gnd reram_bitcell_7
Xbit_r4_c5 bl[5] br[5] wl[4] gnd reram_bitcell_7
Xbit_r5_c5 bl[5] br[5] wl[5] gnd reram_bitcell_7
Xbit_r6_c5 bl[5] br[5] wl[6] gnd reram_bitcell_7
Xbit_r7_c5 bl[5] br[5] wl[7] gnd reram_bitcell_7
Xbit_r8_c5 bl[5] br[5] wl[8] gnd reram_bitcell_7
Xbit_r9_c5 bl[5] br[5] wl[9] gnd reram_bitcell_7
Xbit_r10_c5 bl[5] br[5] wl[10] gnd reram_bitcell_7
Xbit_r11_c5 bl[5] br[5] wl[11] gnd reram_bitcell_7
Xbit_r12_c5 bl[5] br[5] wl[12] gnd reram_bitcell_7
Xbit_r13_c5 bl[5] br[5] wl[13] gnd reram_bitcell_7
Xbit_r14_c5 bl[5] br[5] wl[14] gnd reram_bitcell_7
Xbit_r15_c5 bl[5] br[5] wl[15] gnd reram_bitcell_7
Xbit_r16_c5 bl[5] br[5] wl[16] gnd reram_bitcell_7
Xbit_r17_c5 bl[5] br[5] wl[17] gnd reram_bitcell_7
Xbit_r18_c5 bl[5] br[5] wl[18] gnd reram_bitcell_7
Xbit_r19_c5 bl[5] br[5] wl[19] gnd reram_bitcell_7
Xbit_r20_c5 bl[5] br[5] wl[20] gnd reram_bitcell_7
Xbit_r21_c5 bl[5] br[5] wl[21] gnd reram_bitcell_7
Xbit_r22_c5 bl[5] br[5] wl[22] gnd reram_bitcell_7
Xbit_r23_c5 bl[5] br[5] wl[23] gnd reram_bitcell_7
Xbit_r24_c5 bl[5] br[5] wl[24] gnd reram_bitcell_7
Xbit_r25_c5 bl[5] br[5] wl[25] gnd reram_bitcell_7
Xbit_r26_c5 bl[5] br[5] wl[26] gnd reram_bitcell_7
Xbit_r27_c5 bl[5] br[5] wl[27] gnd reram_bitcell_7
Xbit_r28_c5 bl[5] br[5] wl[28] gnd reram_bitcell_7
Xbit_r29_c5 bl[5] br[5] wl[29] gnd reram_bitcell_7
Xbit_r30_c5 bl[5] br[5] wl[30] gnd reram_bitcell_7
Xbit_r31_c5 bl[5] br[5] wl[31] gnd reram_bitcell_7
Xbit_r0_c6 bl[6] br[6] wl[0] gnd reram_bitcell_7
Xbit_r1_c6 bl[6] br[6] wl[1] gnd reram_bitcell_7
Xbit_r2_c6 bl[6] br[6] wl[2] gnd reram_bitcell_7
Xbit_r3_c6 bl[6] br[6] wl[3] gnd reram_bitcell_7
Xbit_r4_c6 bl[6] br[6] wl[4] gnd reram_bitcell_7
Xbit_r5_c6 bl[6] br[6] wl[5] gnd reram_bitcell_7
Xbit_r6_c6 bl[6] br[6] wl[6] gnd reram_bitcell_7
Xbit_r7_c6 bl[6] br[6] wl[7] gnd reram_bitcell_7
Xbit_r8_c6 bl[6] br[6] wl[8] gnd reram_bitcell_7
Xbit_r9_c6 bl[6] br[6] wl[9] gnd reram_bitcell_7
Xbit_r10_c6 bl[6] br[6] wl[10] gnd reram_bitcell_7
Xbit_r11_c6 bl[6] br[6] wl[11] gnd reram_bitcell_7
Xbit_r12_c6 bl[6] br[6] wl[12] gnd reram_bitcell_7
Xbit_r13_c6 bl[6] br[6] wl[13] gnd reram_bitcell_7
Xbit_r14_c6 bl[6] br[6] wl[14] gnd reram_bitcell_7
Xbit_r15_c6 bl[6] br[6] wl[15] gnd reram_bitcell_7
Xbit_r16_c6 bl[6] br[6] wl[16] gnd reram_bitcell_7
Xbit_r17_c6 bl[6] br[6] wl[17] gnd reram_bitcell_7
Xbit_r18_c6 bl[6] br[6] wl[18] gnd reram_bitcell_7
Xbit_r19_c6 bl[6] br[6] wl[19] gnd reram_bitcell_7
Xbit_r20_c6 bl[6] br[6] wl[20] gnd reram_bitcell_7
Xbit_r21_c6 bl[6] br[6] wl[21] gnd reram_bitcell_7
Xbit_r22_c6 bl[6] br[6] wl[22] gnd reram_bitcell_7
Xbit_r23_c6 bl[6] br[6] wl[23] gnd reram_bitcell_7
Xbit_r24_c6 bl[6] br[6] wl[24] gnd reram_bitcell_7
Xbit_r25_c6 bl[6] br[6] wl[25] gnd reram_bitcell_7
Xbit_r26_c6 bl[6] br[6] wl[26] gnd reram_bitcell_7
Xbit_r27_c6 bl[6] br[6] wl[27] gnd reram_bitcell_7
Xbit_r28_c6 bl[6] br[6] wl[28] gnd reram_bitcell_7
Xbit_r29_c6 bl[6] br[6] wl[29] gnd reram_bitcell_7
Xbit_r30_c6 bl[6] br[6] wl[30] gnd reram_bitcell_7
Xbit_r31_c6 bl[6] br[6] wl[31] gnd reram_bitcell_7
Xbit_r0_c7 bl[7] br[7] wl[0] gnd reram_bitcell_7
Xbit_r1_c7 bl[7] br[7] wl[1] gnd reram_bitcell_7
Xbit_r2_c7 bl[7] br[7] wl[2] gnd reram_bitcell_7
Xbit_r3_c7 bl[7] br[7] wl[3] gnd reram_bitcell_7
Xbit_r4_c7 bl[7] br[7] wl[4] gnd reram_bitcell_7
Xbit_r5_c7 bl[7] br[7] wl[5] gnd reram_bitcell_7
Xbit_r6_c7 bl[7] br[7] wl[6] gnd reram_bitcell_7
Xbit_r7_c7 bl[7] br[7] wl[7] gnd reram_bitcell_7
Xbit_r8_c7 bl[7] br[7] wl[8] gnd reram_bitcell_7
Xbit_r9_c7 bl[7] br[7] wl[9] gnd reram_bitcell_7
Xbit_r10_c7 bl[7] br[7] wl[10] gnd reram_bitcell_7
Xbit_r11_c7 bl[7] br[7] wl[11] gnd reram_bitcell_7
Xbit_r12_c7 bl[7] br[7] wl[12] gnd reram_bitcell_7
Xbit_r13_c7 bl[7] br[7] wl[13] gnd reram_bitcell_7
Xbit_r14_c7 bl[7] br[7] wl[14] gnd reram_bitcell_7
Xbit_r15_c7 bl[7] br[7] wl[15] gnd reram_bitcell_7
Xbit_r16_c7 bl[7] br[7] wl[16] gnd reram_bitcell_7
Xbit_r17_c7 bl[7] br[7] wl[17] gnd reram_bitcell_7
Xbit_r18_c7 bl[7] br[7] wl[18] gnd reram_bitcell_7
Xbit_r19_c7 bl[7] br[7] wl[19] gnd reram_bitcell_7
Xbit_r20_c7 bl[7] br[7] wl[20] gnd reram_bitcell_7
Xbit_r21_c7 bl[7] br[7] wl[21] gnd reram_bitcell_7
Xbit_r22_c7 bl[7] br[7] wl[22] gnd reram_bitcell_7
Xbit_r23_c7 bl[7] br[7] wl[23] gnd reram_bitcell_7
Xbit_r24_c7 bl[7] br[7] wl[24] gnd reram_bitcell_7
Xbit_r25_c7 bl[7] br[7] wl[25] gnd reram_bitcell_7
Xbit_r26_c7 bl[7] br[7] wl[26] gnd reram_bitcell_7
Xbit_r27_c7 bl[7] br[7] wl[27] gnd reram_bitcell_7
Xbit_r28_c7 bl[7] br[7] wl[28] gnd reram_bitcell_7
Xbit_r29_c7 bl[7] br[7] wl[29] gnd reram_bitcell_7
Xbit_r30_c7 bl[7] br[7] wl[30] gnd reram_bitcell_7
Xbit_r31_c7 bl[7] br[7] wl[31] gnd reram_bitcell_7
Xbit_r0_c8 bl[8] br[8] wl[0] gnd reram_bitcell_7
Xbit_r1_c8 bl[8] br[8] wl[1] gnd reram_bitcell_7
Xbit_r2_c8 bl[8] br[8] wl[2] gnd reram_bitcell_7
Xbit_r3_c8 bl[8] br[8] wl[3] gnd reram_bitcell_7
Xbit_r4_c8 bl[8] br[8] wl[4] gnd reram_bitcell_7
Xbit_r5_c8 bl[8] br[8] wl[5] gnd reram_bitcell_7
Xbit_r6_c8 bl[8] br[8] wl[6] gnd reram_bitcell_7
Xbit_r7_c8 bl[8] br[8] wl[7] gnd reram_bitcell_7
Xbit_r8_c8 bl[8] br[8] wl[8] gnd reram_bitcell_7
Xbit_r9_c8 bl[8] br[8] wl[9] gnd reram_bitcell_7
Xbit_r10_c8 bl[8] br[8] wl[10] gnd reram_bitcell_7
Xbit_r11_c8 bl[8] br[8] wl[11] gnd reram_bitcell_7
Xbit_r12_c8 bl[8] br[8] wl[12] gnd reram_bitcell_7
Xbit_r13_c8 bl[8] br[8] wl[13] gnd reram_bitcell_7
Xbit_r14_c8 bl[8] br[8] wl[14] gnd reram_bitcell_7
Xbit_r15_c8 bl[8] br[8] wl[15] gnd reram_bitcell_7
Xbit_r16_c8 bl[8] br[8] wl[16] gnd reram_bitcell_7
Xbit_r17_c8 bl[8] br[8] wl[17] gnd reram_bitcell_7
Xbit_r18_c8 bl[8] br[8] wl[18] gnd reram_bitcell_7
Xbit_r19_c8 bl[8] br[8] wl[19] gnd reram_bitcell_7
Xbit_r20_c8 bl[8] br[8] wl[20] gnd reram_bitcell_7
Xbit_r21_c8 bl[8] br[8] wl[21] gnd reram_bitcell_7
Xbit_r22_c8 bl[8] br[8] wl[22] gnd reram_bitcell_7
Xbit_r23_c8 bl[8] br[8] wl[23] gnd reram_bitcell_7
Xbit_r24_c8 bl[8] br[8] wl[24] gnd reram_bitcell_7
Xbit_r25_c8 bl[8] br[8] wl[25] gnd reram_bitcell_7
Xbit_r26_c8 bl[8] br[8] wl[26] gnd reram_bitcell_7
Xbit_r27_c8 bl[8] br[8] wl[27] gnd reram_bitcell_7
Xbit_r28_c8 bl[8] br[8] wl[28] gnd reram_bitcell_7
Xbit_r29_c8 bl[8] br[8] wl[29] gnd reram_bitcell_7
Xbit_r30_c8 bl[8] br[8] wl[30] gnd reram_bitcell_7
Xbit_r31_c8 bl[8] br[8] wl[31] gnd reram_bitcell_7
Xbit_r0_c9 bl[9] br[9] wl[0] gnd reram_bitcell_7
Xbit_r1_c9 bl[9] br[9] wl[1] gnd reram_bitcell_7
Xbit_r2_c9 bl[9] br[9] wl[2] gnd reram_bitcell_7
Xbit_r3_c9 bl[9] br[9] wl[3] gnd reram_bitcell_7
Xbit_r4_c9 bl[9] br[9] wl[4] gnd reram_bitcell_7
Xbit_r5_c9 bl[9] br[9] wl[5] gnd reram_bitcell_7
Xbit_r6_c9 bl[9] br[9] wl[6] gnd reram_bitcell_7
Xbit_r7_c9 bl[9] br[9] wl[7] gnd reram_bitcell_7
Xbit_r8_c9 bl[9] br[9] wl[8] gnd reram_bitcell_7
Xbit_r9_c9 bl[9] br[9] wl[9] gnd reram_bitcell_7
Xbit_r10_c9 bl[9] br[9] wl[10] gnd reram_bitcell_7
Xbit_r11_c9 bl[9] br[9] wl[11] gnd reram_bitcell_7
Xbit_r12_c9 bl[9] br[9] wl[12] gnd reram_bitcell_7
Xbit_r13_c9 bl[9] br[9] wl[13] gnd reram_bitcell_7
Xbit_r14_c9 bl[9] br[9] wl[14] gnd reram_bitcell_7
Xbit_r15_c9 bl[9] br[9] wl[15] gnd reram_bitcell_7
Xbit_r16_c9 bl[9] br[9] wl[16] gnd reram_bitcell_7
Xbit_r17_c9 bl[9] br[9] wl[17] gnd reram_bitcell_7
Xbit_r18_c9 bl[9] br[9] wl[18] gnd reram_bitcell_7
Xbit_r19_c9 bl[9] br[9] wl[19] gnd reram_bitcell_7
Xbit_r20_c9 bl[9] br[9] wl[20] gnd reram_bitcell_7
Xbit_r21_c9 bl[9] br[9] wl[21] gnd reram_bitcell_7
Xbit_r22_c9 bl[9] br[9] wl[22] gnd reram_bitcell_7
Xbit_r23_c9 bl[9] br[9] wl[23] gnd reram_bitcell_7
Xbit_r24_c9 bl[9] br[9] wl[24] gnd reram_bitcell_7
Xbit_r25_c9 bl[9] br[9] wl[25] gnd reram_bitcell_7
Xbit_r26_c9 bl[9] br[9] wl[26] gnd reram_bitcell_7
Xbit_r27_c9 bl[9] br[9] wl[27] gnd reram_bitcell_7
Xbit_r28_c9 bl[9] br[9] wl[28] gnd reram_bitcell_7
Xbit_r29_c9 bl[9] br[9] wl[29] gnd reram_bitcell_7
Xbit_r30_c9 bl[9] br[9] wl[30] gnd reram_bitcell_7
Xbit_r31_c9 bl[9] br[9] wl[31] gnd reram_bitcell_7
Xbit_r0_c10 bl[10] br[10] wl[0] gnd reram_bitcell_7