*FIRST LINE IS A COMMENT

.SUBCKT reram_bitcell_7 bl br wl gnd
Xaccess be wl br gnd sky130_fd_pr__nfet_01v8 m=1 nf=4 w=7.0 l=0.15 pd=3.8 ps=3.8 as=0.65625 ad=0.65625
Xsky130_fd_pr__reram_reram_cell bl be sky130_fd_pr__reram_reram_cell
.ENDS reram_bitcell_7
.subckt ms_flop_clk_buf din dout dout_bar clk vdd gnd
xm1 clk_buf clk_bar gnd gnd sky130_fd_pr__nfet_01v8 l=0.15 w=0.36 nf=1
+   sa=0 sb=0 sd=0 mult=1 m=1
xm8 clk_buf clk_bar vdd vdd sky130_fd_pr__pfet_01v8 l=0.15 w=0.9 nf=1
+   sa=0 sb=0 sd=0 mult=1 m=1
xm2 clk_bar clk gnd gnd sky130_fd_pr__nfet_01v8 l=0.15 w=0.36 nf=1
+ sa=0 sb=0 sd=0 mult=1 m=1
xm3 clk_bar clk vdd vdd sky130_fd_pr__pfet_01v8 l=0.15 w=0.9 nf=1
+ sa=0 sb=0 sd=0 mult=1 m=1
x1 din clk_buf vdd gnd lout lout_bar clk_bar dlatch
x2 lout_bar clk_bar vdd gnd dout_bar dout clk_buf dlatch
.ends
.subckt dlatch  din clk vdd gnd dout dout_bar clk_bar
xm1 dout dout_bar gnd gnd sky130_fd_pr__nfet_01v8 l=0.15 w=0.61 nf=1
+   sa=0 sb=0 sd=0 mult=1 m=1
xm2 dout_bar int gnd gnd sky130_fd_pr__nfet_01v8 l=0.15 w=0.61 nf=1
+   sa=0 sb=0 sd=0 mult=1 m=1
xm3 int clk dout gnd sky130_fd_pr__nfet_01v8 l=0.15 w=0.36 nf=1
+ sa=0 sb=0 sd=0 mult=1 m=1
xm5 int clk_bar dout vdd sky130_fd_pr__pfet_01v8 l=0.15 w=0.6 nf=1
+ sa=0 sb=0 sd=0 mult=1 m=1
xm4 int clk_bar din gnd sky130_fd_pr__nfet_01v8 l=0.15 w=0.36 nf=1
+ sa=0 sb=0 sd=0 mult=1 m=1
xm6 int clk din vdd sky130_fd_pr__pfet_01v8 l=0.15 w=0.6 nf=1
+ sa=0 sb=0 sd=0 mult=1 m=1
xm7 dout_bar int vdd vdd sky130_fd_pr__pfet_01v8 l=0.15 w=1.22 nf=1
+   sa=0 sb=0 sd=0 mult=1 m=1
xm8 dout dout_bar vdd vdd sky130_fd_pr__pfet_01v8 l=0.15 w=1.22 nf=1
+   sa=0 sb=0 sd=0 mult=1 m=1
.ends

.SUBCKT flop_array_c64_w64_ms_flop_clk_buf_ms_flop_clk_buf_tap din[0] din[1] din[2] din[3] din[4] din[5] din[6] din[7] din[8] din[9] din[10] din[11] din[12] din[13] din[14] din[15] din[16] din[17] din[18] din[19] din[20] din[21] din[22] din[23] din[24] din[25] din[26] din[27] din[28] din[29] din[30] din[31] din[32] din[33] din[34] din[35] din[36] din[37] din[38] din[39] din[40] din[41] din[42] din[43] din[44] din[45] din[46] din[47] din[48] din[49] din[50] din[51] din[52] din[53] din[54] din[55] din[56] din[57] din[58] din[59] din[60] din[61] din[62] din[63] dout[0] dout_bar[0] dout[1] dout_bar[1] dout[2] dout_bar[2] dout[3] dout_bar[3] dout[4] dout_bar[4] dout[5] dout_bar[5] dout[6] dout_bar[6] dout[7] dout_bar[7] dout[8] dout_bar[8] dout[9] dout_bar[9] dout[10] dout_bar[10] dout[11] dout_bar[11] dout[12] dout_bar[12] dout[13] dout_bar[13] dout[14] dout_bar[14] dout[15] dout_bar[15] dout[16] dout_bar[16] dout[17] dout_bar[17] dout[18] dout_bar[18] dout[19] dout_bar[19] dout[20] dout_bar[20] dout[21] dout_bar[21] dout[22] dout_bar[22] dout[23] dout_bar[23] dout[24] dout_bar[24] dout[25] dout_bar[25] dout[26] dout_bar[26] dout[27] dout_bar[27] dout[28] dout_bar[28] dout[29] dout_bar[29] dout[30] dout_bar[30] dout[31] dout_bar[31] dout[32] dout_bar[32] dout[33] dout_bar[33] dout[34] dout_bar[34] dout[35] dout_bar[35] dout[36] dout_bar[36] dout[37] dout_bar[37] dout[38] dout_bar[38] dout[39] dout_bar[39] dout[40] dout_bar[40] dout[41] dout_bar[41] dout[42] dout_bar[42] dout[43] dout_bar[43] dout[44] dout_bar[44] dout[45] dout_bar[45] dout[46] dout_bar[46] dout[47] dout_bar[47] dout[48] dout_bar[48] dout[49] dout_bar[49] dout[50] dout_bar[50] dout[51] dout_bar[51] dout[52] dout_bar[52] dout[53] dout_bar[53] dout[54] dout_bar[54] dout[55] dout_bar[55] dout[56] dout_bar[56] dout[57] dout_bar[57] dout[58] dout_bar[58] dout[59] dout_bar[59] dout[60] dout_bar[60] dout[61] dout_bar[61] dout[62] dout_bar[62] dout[63] dout_bar[63] clk vdd gnd
Xmod_0 din[0] dout[0] dout_bar[0] clk vdd gnd ms_flop_clk_buf
Xmod_1 din[1] dout[1] dout_bar[1] clk vdd gnd ms_flop_clk_buf
Xmod_2 din[2] dout[2] dout_bar[2] clk vdd gnd ms_flop_clk_buf
Xmod_3 din[3] dout[3] dout_bar[3] clk vdd gnd ms_flop_clk_buf
Xmod_4 din[4] dout[4] dout_bar[4] clk vdd gnd ms_flop_clk_buf
Xmod_5 din[5] dout[5] dout_bar[5] clk vdd gnd ms_flop_clk_buf
Xmod_6 din[6] dout[6] dout_bar[6] clk vdd gnd ms_flop_clk_buf
Xmod_7 din[7] dout[7] dout_bar[7] clk vdd gnd ms_flop_clk_buf
Xmod_8 din[8] dout[8] dout_bar[8] clk vdd gnd ms_flop_clk_buf
Xmod_9 din[9] dout[9] dout_bar[9] clk vdd gnd ms_flop_clk_buf
Xmod_10 din[10] dout[10] dout_bar[10] clk vdd gnd ms_flop_clk_buf
Xmod_11 din[11] dout[11] dout_bar[11] clk vdd gnd ms_flop_clk_buf
Xmod_12 din[12] dout[12] dout_bar[12] clk vdd gnd ms_flop_clk_buf
Xmod_13 din[13] dout[13] dout_bar[13] clk vdd gnd ms_flop_clk_buf
Xmod_14 din[14] dout[14] dout_bar[14] clk vdd gnd ms_flop_clk_buf
Xmod_15 din[15] dout[15] dout_bar[15] clk vdd gnd ms_flop_clk_buf
Xmod_16 din[16] dout[16] dout_bar[16] clk vdd gnd ms_flop_clk_buf
Xmod_17 din[17] dout[17] dout_bar[17] clk vdd gnd ms_flop_clk_buf
Xmod_18 din[18] dout[18] dout_bar[18] clk vdd gnd ms_flop_clk_buf
Xmod_19 din[19] dout[19] dout_bar[19] clk vdd gnd ms_flop_clk_buf
Xmod_20 din[20] dout[20] dout_bar[20] clk vdd gnd ms_flop_clk_buf
Xmod_21 din[21] dout[21] dout_bar[21] clk vdd gnd ms_flop_clk_buf
Xmod_22 din[22] dout[22] dout_bar[22] clk vdd gnd ms_flop_clk_buf
Xmod_23 din[23] dout[23] dout_bar[23] clk vdd gnd ms_flop_clk_buf
Xmod_24 din[24] dout[24] dout_bar[24] clk vdd gnd ms_flop_clk_buf
Xmod_25 din[25] dout[25] dout_bar[25] clk vdd gnd ms_flop_clk_buf
Xmod_26 din[26] dout[26] dout_bar[26] clk vdd gnd ms_flop_clk_buf
Xmod_27 din[27] dout[27] dout_bar[27] clk vdd gnd ms_flop_clk_buf
Xmod_28 din[28] dout[28] dout_bar[28] clk vdd gnd ms_flop_clk_buf
Xmod_29 din[29] dout[29] dout_bar[29] clk vdd gnd ms_flop_clk_buf
Xmod_30 din[30] dout[30] dout_bar[30] clk vdd gnd ms_flop_clk_buf
Xmod_31 din[31] dout[31] dout_bar[31] clk vdd gnd ms_flop_clk_buf
Xmod_32 din[32] dout[32] dout_bar[32] clk vdd gnd ms_flop_clk_buf
Xmod_33 din[33] dout[33] dout_bar[33] clk vdd gnd ms_flop_clk_buf
Xmod_34 din[34] dout[34] dout_bar[34] clk vdd gnd ms_flop_clk_buf
Xmod_35 din[35] dout[35] dout_bar[35] clk vdd gnd ms_flop_clk_buf
Xmod_36 din[36] dout[36] dout_bar[36] clk vdd gnd ms_flop_clk_buf
Xmod_37 din[37] dout[37] dout_bar[37] clk vdd gnd ms_flop_clk_buf
Xmod_38 din[38] dout[38] dout_bar[38] clk vdd gnd ms_flop_clk_buf
Xmod_39 din[39] dout[39] dout_bar[39] clk vdd gnd ms_flop_clk_buf
Xmod_40 din[40] dout[40] dout_bar[40] clk vdd gnd ms_flop_clk_buf
Xmod_41 din[41] dout[41] dout_bar[41] clk vdd gnd ms_flop_clk_buf
Xmod_42 din[42] dout[42] dout_bar[42] clk vdd gnd ms_flop_clk_buf
Xmod_43 din[43] dout[43] dout_bar[43] clk vdd gnd ms_flop_clk_buf
Xmod_44 din[44] dout[44] dout_bar[44] clk vdd gnd ms_flop_clk_buf
Xmod_45 din[45] dout[45] dout_bar[45] clk vdd gnd ms_flop_clk_buf
Xmod_46 din[46] dout[46] dout_bar[46] clk vdd gnd ms_flop_clk_buf
Xmod_47 din[47] dout[47] dout_bar[47] clk vdd gnd ms_flop_clk_buf
Xmod_48 din[48] dout[48] dout_bar[48] clk vdd gnd ms_flop_clk_buf
Xmod_49 din[49] dout[49] dout_bar[49] clk vdd gnd ms_flop_clk_buf
Xmod_50 din[50] dout[50] dout_bar[50] clk vdd gnd ms_flop_clk_buf
Xmod_51 din[51] dout[51] dout_bar[51] clk vdd gnd ms_flop_clk_buf
Xmod_52 din[52] dout[52] dout_bar[52] clk vdd gnd ms_flop_clk_buf
Xmod_53 din[53] dout[53] dout_bar[53] clk vdd gnd ms_flop_clk_buf
Xmod_54 din[54] dout[54] dout_bar[54] clk vdd gnd ms_flop_clk_buf
Xmod_55 din[55] dout[55] dout_bar[55] clk vdd gnd ms_flop_clk_buf
Xmod_56 din[56] dout[56] dout_bar[56] clk vdd gnd ms_flop_clk_buf
Xmod_57 din[57] dout[57] dout_bar[57] clk vdd gnd ms_flop_clk_buf
Xmod_58 din[58] dout[58] dout_bar[58] clk vdd gnd ms_flop_clk_buf
Xmod_59 din[59] dout[59] dout_bar[59] clk vdd gnd ms_flop_clk_buf
Xmod_60 din[60] dout[60] dout_bar[60] clk vdd gnd ms_flop_clk_buf
Xmod_61 din[61] dout[61] dout_bar[61] clk vdd gnd ms_flop_clk_buf
Xmod_62 din[62] dout[62] dout_bar[62] clk vdd gnd ms_flop_clk_buf
Xmod_63 din[63] dout[63] dout_bar[63] clk vdd gnd ms_flop_clk_buf
.ENDS flop_array_c64_w64_ms_flop_clk_buf_ms_flop_clk_buf_tap

* ptx X{0} {1} sky130_fd_pr__nfet_01v8 m=1 nf=4 w=2.16 l=0.15 pd=1.3800000000000001 ps=1.3800000000000001 as=0.2025 ad=0.2025

* ptx X{0} {1} sky130_fd_pr__pfet_01v8 m=1 nf=4 w=8.1 l=0.15 pd=4.35 ps=4.35 as=0.7593749999999999 ad=0.7593749999999999

* ptx X{0} {1} sky130_fd_pr__nfet_01v8 m=1 nf=4 w=8.64 l=0.15 pd=4.62 ps=4.62 as=0.81 ad=0.81

* ptx X{0} {1} sky130_fd_pr__pfet_01v8 m=1 nf=4 w=21.6 l=0.15 pd=11.100000000000001 ps=11.100000000000001 as=2.0250000000000004 ad=2.0250000000000004

* ptx X{0} {1} sky130_fd_pr__nfet_01v8 m=1 nf=1 w=0.54 l=0.15 pd=1.3800000000000001 ps=1.3800000000000001 as=0.2025 ad=0.2025

* ptx X{0} {1} sky130_fd_pr__pfet_01v8 m=1 nf=1 w=2.025 l=0.15 pd=4.35 ps=4.35 as=0.7593749999999999 ad=0.7593749999999999

* ptx X{0} {1} sky130_fd_pr__nfet_01v8 m=1 nf=1 w=2.16 l=0.15 pd=4.62 ps=4.62 as=0.81 ad=0.81

* ptx X{0} {1} sky130_fd_pr__pfet_01v8 m=1 nf=1 w=5.4 l=0.15 pd=11.100000000000001 ps=11.100000000000001 as=2.0250000000000004 ad=2.0250000000000004

.SUBCKT write_driver_1__5_6 data data_bar mask_bar en en_bar bl br vdd gnd
XM0 gnd data bl_bar gnd sky130_fd_pr__nfet_01v8 m=1 nf=1 w=0.54 l=0.15 pd=1.3800000000000001 ps=1.3800000000000001 as=0.2025 ad=0.2025
XM1 gnd mask_bar bl_bar gnd sky130_fd_pr__nfet_01v8 m=1 nf=1 w=0.54 l=0.15 pd=1.3800000000000001 ps=1.3800000000000001 as=0.2025 ad=0.2025
XM2 gnd data_bar br_bar gnd sky130_fd_pr__nfet_01v8 m=1 nf=1 w=0.54 l=0.15 pd=1.3800000000000001 ps=1.3800000000000001 as=0.2025 ad=0.2025
XM3 gnd mask_bar br_bar gnd sky130_fd_pr__nfet_01v8 m=1 nf=1 w=0.54 l=0.15 pd=1.3800000000000001 ps=1.3800000000000001 as=0.2025 ad=0.2025
XM4 bl_bar data bl_log_mid vdd sky130_fd_pr__pfet_01v8 m=1 nf=1 w=2.025 l=0.15 pd=4.35 ps=4.35 as=0.7593749999999999 ad=0.7593749999999999
XM5 bl_log_mid mask_bar vdd vdd sky130_fd_pr__pfet_01v8 m=1 nf=1 w=2.025 l=0.15 pd=4.35 ps=4.35 as=0.7593749999999999 ad=0.7593749999999999
XM6 br_bar data_bar br_log_mid vdd sky130_fd_pr__pfet_01v8 m=1 nf=1 w=2.025 l=0.15 pd=4.35 ps=4.35 as=0.7593749999999999 ad=0.7593749999999999
XM7 br_log_mid mask_bar vdd vdd sky130_fd_pr__pfet_01v8 m=1 nf=1 w=2.025 l=0.15 pd=4.35 ps=4.35 as=0.7593749999999999 ad=0.7593749999999999
XM8 bl bl_bar bl_n_mid gnd sky130_fd_pr__nfet_01v8 m=1 nf=1 w=2.16 l=0.15 pd=4.62 ps=4.62 as=0.81 ad=0.81
XM9 bl_n_mid en gnd gnd sky130_fd_pr__nfet_01v8 m=1 nf=1 w=2.16 l=0.15 pd=4.62 ps=4.62 as=0.81 ad=0.81
XM10 br br_bar br_n_mid gnd sky130_fd_pr__nfet_01v8 m=1 nf=1 w=2.16 l=0.15 pd=4.62 ps=4.62 as=0.81 ad=0.81
XM11 br_n_mid en gnd gnd sky130_fd_pr__nfet_01v8 m=1 nf=1 w=2.16 l=0.15 pd=4.62 ps=4.62 as=0.81 ad=0.81
XM12 bl bl_bar bl_p_mid vdd sky130_fd_pr__pfet_01v8 m=1 nf=1 w=5.4 l=0.15 pd=11.100000000000001 ps=11.100000000000001 as=2.0250000000000004 ad=2.0250000000000004
XM13 bl_p_mid en_bar vdd vdd sky130_fd_pr__pfet_01v8 m=1 nf=1 w=5.4 l=0.15 pd=11.100000000000001 ps=11.100000000000001 as=2.0250000000000004 ad=2.0250000000000004
XM14 br br_bar br_p_mid vdd sky130_fd_pr__pfet_01v8 m=1 nf=1 w=5.4 l=0.15 pd=11.100000000000001 ps=11.100000000000001 as=2.0250000000000004 ad=2.0250000000000004
XM15 br_p_mid en_bar vdd vdd sky130_fd_pr__pfet_01v8 m=1 nf=1 w=5.4 l=0.15 pd=11.100000000000001 ps=11.100000000000001 as=2.0250000000000004 ad=2.0250000000000004
.ENDS write_driver_1__5_6

.SUBCKT write_driver_array data[0] data_bar[0] data[1] data_bar[1] data[2] data_bar[2] data[3] data_bar[3] data[4] data_bar[4] data[5] data_bar[5] data[6] data_bar[6] data[7] data_bar[7] data[8] data_bar[8] data[9] data_bar[9] data[10] data_bar[10] data[11] data_bar[11] data[12] data_bar[12] data[13] data_bar[13] data[14] data_bar[14] data[15] data_bar[15] data[16] data_bar[16] data[17] data_bar[17] data[18] data_bar[18] data[19] data_bar[19] data[20] data_bar[20] data[21] data_bar[21] data[22] data_bar[22] data[23] data_bar[23] data[24] data_bar[24] data[25] data_bar[25] data[26] data_bar[26] data[27] data_bar[27] data[28] data_bar[28] data[29] data_bar[29] data[30] data_bar[30] data[31] data_bar[31] data[32] data_bar[32] data[33] data_bar[33] data[34] data_bar[34] data[35] data_bar[35] data[36] data_bar[36] data[37] data_bar[37] data[38] data_bar[38] data[39] data_bar[39] data[40] data_bar[40] data[41] data_bar[41] data[42] data_bar[42] data[43] data_bar[43] data[44] data_bar[44] data[45] data_bar[45] data[46] data_bar[46] data[47] data_bar[47] data[48] data_bar[48] data[49] data_bar[49] data[50] data_bar[50] data[51] data_bar[51] data[52] data_bar[52] data[53] data_bar[53] data[54] data_bar[54] data[55] data_bar[55] data[56] data_bar[56] data[57] data_bar[57] data[58] data_bar[58] data[59] data_bar[59] data[60] data_bar[60] data[61] data_bar[61] data[62] data_bar[62] data[63] data_bar[63] bl[0] br[0] bl[1] br[1] bl[2] br[2] bl[3] br[3] bl[4] br[4] bl[5] br[5] bl[6] br[6] bl[7] br[7] bl[8] br[8] bl[9] br[9] bl[10] br[10] bl[11] br[11] bl[12] br[12] bl[13] br[13] bl[14] br[14] bl[15] br[15] bl[16] br[16] bl[17] br[17] bl[18] br[18] bl[19] br[19] bl[20] br[20] bl[21] br[21] bl[22] br[22] bl[23] br[23] bl[24] br[24] bl[25] br[25] bl[26] br[26] bl[27] br[27] bl[28] br[28] bl[29] br[29] bl[30] br[30] bl[31] br[31] bl[32] br[32] bl[33] br[33] bl[34] br[34] bl[35] br[35] bl[36] br[36] bl[37] br[37] bl[38] br[38] bl[39] br[39] bl[40] br[40] bl[41] br[41] bl[42] br[42] bl[43] br[43] bl[44] br[44] bl[45] br[45] bl[46] br[46] bl[47] br[47] bl[48] br[48] bl[49] br[49] bl[50] br[50] bl[51] br[51] bl[52] br[52] bl[53] br[53] bl[54] br[54] bl[55] br[55] bl[56] br[56] bl[57] br[57] bl[58] br[58] bl[59] br[59] bl[60] br[60] bl[61] br[61] bl[62] br[62] bl[63] br[63] mask_bar[0] mask_bar[1] mask_bar[2] mask_bar[3] mask_bar[4] mask_bar[5] mask_bar[6] mask_bar[7] mask_bar[8] mask_bar[9] mask_bar[10] mask_bar[11] mask_bar[12] mask_bar[13] mask_bar[14] mask_bar[15] mask_bar[16] mask_bar[17] mask_bar[18] mask_bar[19] mask_bar[20] mask_bar[21] mask_bar[22] mask_bar[23] mask_bar[24] mask_bar[25] mask_bar[26] mask_bar[27] mask_bar[28] mask_bar[29] mask_bar[30] mask_bar[31] mask_bar[32] mask_bar[33] mask_bar[34] mask_bar[35] mask_bar[36] mask_bar[37] mask_bar[38] mask_bar[39] mask_bar[40] mask_bar[41] mask_bar[42] mask_bar[43] mask_bar[44] mask_bar[45] mask_bar[46] mask_bar[47] mask_bar[48] mask_bar[49] mask_bar[50] mask_bar[51] mask_bar[52] mask_bar[53] mask_bar[54] mask_bar[55] mask_bar[56] mask_bar[57] mask_bar[58] mask_bar[59] mask_bar[60] mask_bar[61] mask_bar[62] mask_bar[63] en en_bar vdd gnd
Xmod_0 data[0] data_bar[0] mask_bar[0] en en_bar bl[0] br[0] vdd gnd write_driver_1__5_6
Xmod_1 data[1] data_bar[1] mask_bar[1] en en_bar bl[1] br[1] vdd gnd write_driver_1__5_6
Xmod_2 data[2] data_bar[2] mask_bar[2] en en_bar bl[2] br[2] vdd gnd write_driver_1__5_6
Xmod_3 data[3] data_bar[3] mask_bar[3] en en_bar bl[3] br[3] vdd gnd write_driver_1__5_6
Xmod_4 data[4] data_bar[4] mask_bar[4] en en_bar bl[4] br[4] vdd gnd write_driver_1__5_6
Xmod_5 data[5] data_bar[5] mask_bar[5] en en_bar bl[5] br[5] vdd gnd write_driver_1__5_6
Xmod_6 data[6] data_bar[6] mask_bar[6] en en_bar bl[6] br[6] vdd gnd write_driver_1__5_6
Xmod_7 data[7] data_bar[7] mask_bar[7] en en_bar bl[7] br[7] vdd gnd write_driver_1__5_6
Xmod_8 data[8] data_bar[8] mask_bar[8] en en_bar bl[8] br[8] vdd gnd write_driver_1__5_6
Xmod_9 data[9] data_bar[9] mask_bar[9] en en_bar bl[9] br[9] vdd gnd write_driver_1__5_6
Xmod_10 data[10] data_bar[10] mask_bar[10] en en_bar bl[10] br[10] vdd gnd write_driver_1__5_6
Xmod_11 data[11] data_bar[11] mask_bar[11] en en_bar bl[11] br[11] vdd gnd write_driver_1__5_6
Xmod_12 data[12] data_bar[12] mask_bar[12] en en_bar bl[12] br[12] vdd gnd write_driver_1__5_6
Xmod_13 data[13] data_bar[13] mask_bar[13] en en_bar bl[13] br[13] vdd gnd write_driver_1__5_6
Xmod_14 data[14] data_bar[14] mask_bar[14] en en_bar bl[14] br[14] vdd gnd write_driver_1__5_6
Xmod_15 data[15] data_bar[15] mask_bar[15] en en_bar bl[15] br[15] vdd gnd write_driver_1__5_6
Xmod_16 data[16] data_bar[16] mask_bar[16] en en_bar bl[16] br[16] vdd gnd write_driver_1__5_6
Xmod_17 data[17] data_bar[17] mask_bar[17] en en_bar bl[17] br[17] vdd gnd write_driver_1__5_6
Xmod_18 data[18] data_bar[18] mask_bar[18] en en_bar bl[18] br[18] vdd gnd write_driver_1__5_6
Xmod_19 data[19] data_bar[19] mask_bar[19] en en_bar bl[19] br[19] vdd gnd write_driver_1__5_6
Xmod_20 data[20] data_bar[20] mask_bar[20] en en_bar bl[20] br[20] vdd gnd write_driver_1__5_6
Xmod_21 data[21] data_bar[21] mask_bar[21] en en_bar bl[21] br[21] vdd gnd write_driver_1__5_6
Xmod_22 data[22] data_bar[22] mask_bar[22] en en_bar bl[22] br[22] vdd gnd write_driver_1__5_6
Xmod_23 data[23] data_bar[23] mask_bar[23] en en_bar bl[23] br[23] vdd gnd write_driver_1__5_6
Xmod_24 data[24] data_bar[24] mask_bar[24] en en_bar bl[24] br[24] vdd gnd write_driver_1__5_6
Xmod_25 data[25] data_bar[25] mask_bar[25] en en_bar bl[25] br[25] vdd gnd write_driver_1__5_6
Xmod_26 data[26] data_bar[26] mask_bar[26] en en_bar bl[26] br[26] vdd gnd write_driver_1__5_6
Xmod_27 data[27] data_bar[27] mask_bar[27] en en_bar bl[27] br[27] vdd gnd write_driver_1__5_6
Xmod_28 data[28] data_bar[28] mask_bar[28] en en_bar bl[28] br[28] vdd gnd write_driver_1__5_6
Xmod_29 data[29] data_bar[29] mask_bar[29] en en_bar bl[29] br[29] vdd gnd write_driver_1__5_6
Xmod_30 data[30] data_bar[30] mask_bar[30] en en_bar bl[30] br[30] vdd gnd write_driver_1__5_6
Xmod_31 data[31] data_bar[31] mask_bar[31] en en_bar bl[31] br[31] vdd gnd write_driver_1__5_6
Xmod_32 data[32] data_bar[32] mask_bar[32] en en_bar bl[32] br[32] vdd gnd write_driver_1__5_6
Xmod_33 data[33] data_bar[33] mask_bar[33] en en_bar bl[33] br[33] vdd gnd write_driver_1__5_6
Xmod_34 data[34] data_bar[34] mask_bar[34] en en_bar bl[34] br[34] vdd gnd write_driver_1__5_6
Xmod_35 data[35] data_bar[35] mask_bar[35] en en_bar bl[35] br[35] vdd gnd write_driver_1__5_6
Xmod_36 data[36] data_bar[36] mask_bar[36] en en_bar bl[36] br[36] vdd gnd write_driver_1__5_6
Xmod_37 data[37] data_bar[37] mask_bar[37] en en_bar bl[37] br[37] vdd gnd write_driver_1__5_6
Xmod_38 data[38] data_bar[38] mask_bar[38] en en_bar bl[38] br[38] vdd gnd write_driver_1__5_6
Xmod_39 data[39] data_bar[39] mask_bar[39] en en_bar bl[39] br[39] vdd gnd write_driver_1__5_6
Xmod_40 data[40] data_bar[40] mask_bar[40] en en_bar bl[40] br[40] vdd gnd write_driver_1__5_6
Xmod_41 data[41] data_bar[41] mask_bar[41] en en_bar bl[41] br[41] vdd gnd write_driver_1__5_6
Xmod_42 data[42] data_bar[42] mask_bar[42] en en_bar bl[42] br[42] vdd gnd write_driver_1__5_6
Xmod_43 data[43] data_bar[43] mask_bar[43] en en_bar bl[43] br[43] vdd gnd write_driver_1__5_6
Xmod_44 data[44] data_bar[44] mask_bar[44] en en_bar bl[44] br[44] vdd gnd write_driver_1__5_6
Xmod_45 data[45] data_bar[45] mask_bar[45] en en_bar bl[45] br[45] vdd gnd write_driver_1__5_6
Xmod_46 data[46] data_bar[46] mask_bar[46] en en_bar bl[46] br[46] vdd gnd write_driver_1__5_6
Xmod_47 data[47] data_bar[47] mask_bar[47] en en_bar bl[47] br[47] vdd gnd write_driver_1__5_6
Xmod_48 data[48] data_bar[48] mask_bar[48] en en_bar bl[48] br[48] vdd gnd write_driver_1__5_6
Xmod_49 data[49] data_bar[49] mask_bar[49] en en_bar bl[49] br[49] vdd gnd write_driver_1__5_6
Xmod_50 data[50] data_bar[50] mask_bar[50] en en_bar bl[50] br[50] vdd gnd write_driver_1__5_6
Xmod_51 data[51] data_bar[51] mask_bar[51] en en_bar bl[51] br[51] vdd gnd write_driver_1__5_6
Xmod_52 data[52] data_bar[52] mask_bar[52] en en_bar bl[52] br[52] vdd gnd write_driver_1__5_6
Xmod_53 data[53] data_bar[53] mask_bar[53] en en_bar bl[53] br[53] vdd gnd write_driver_1__5_6
Xmod_54 data[54] data_bar[54] mask_bar[54] en en_bar bl[54] br[54] vdd gnd write_driver_1__5_6
Xmod_55 data[55] data_bar[55] mask_bar[55] en en_bar bl[55] br[55] vdd gnd write_driver_1__5_6
Xmod_56 data[56] data_bar[56] mask_bar[56] en en_bar bl[56] br[56] vdd gnd write_driver_1__5_6
Xmod_57 data[57] data_bar[57] mask_bar[57] en en_bar bl[57] br[57] vdd gnd write_driver_1__5_6
Xmod_58 data[58] data_bar[58] mask_bar[58] en en_bar bl[58] br[58] vdd gnd write_driver_1__5_6
Xmod_59 data[59] data_bar[59] mask_bar[59] en en_bar bl[59] br[59] vdd gnd write_driver_1__5_6
Xmod_60 data[60] data_bar[60] mask_bar[60] en en_bar bl[60] br[60] vdd gnd write_driver_1__5_6
Xmod_61 data[61] data_bar[61] mask_bar[61] en en_bar bl[61] br[61] vdd gnd write_driver_1__5_6
Xmod_62 data[62] data_bar[62] mask_bar[62] en en_bar bl[62] br[62] vdd gnd write_driver_1__5_6
Xmod_63 data[63] data_bar[63] mask_bar[63] en en_bar bl[63] br[63] vdd gnd write_driver_1__5_6
.ENDS write_driver_array

.SUBCKT bitcell_array bl[0] br[0] bl[1] br[1] bl[2] br[2] bl[3] br[3] bl[4] br[4] bl[5] br[5] bl[6] br[6] bl[7] br[7] bl[8] br[8] bl[9] br[9] bl[10] br[10] bl[11] br[11] bl[12] br[12] bl[13] br[13] bl[14] br[14] bl[15] br[15] bl[16] br[16] bl[17] br[17] bl[18] br[18] bl[19] br[19] bl[20] br[20] bl[21] br[21] bl[22] br[22] bl[23] br[23] bl[24] br[24] bl[25] br[25] bl[26] br[26] bl[27] br[27] bl[28] br[28] bl[29] br[29] bl[30] br[30] bl[31] br[31] bl[32] br[32] bl[33] br[33] bl[34] br[34] bl[35] br[35] bl[36] br[36] bl[37] br[37] bl[38] br[38] bl[39] br[39] bl[40] br[40] bl[41] br[41] bl[42] br[42] bl[43] br[43] bl[44] br[44] bl[45] br[45] bl[46] br[46] bl[47] br[47] bl[48] br[48] bl[49] br[49] bl[50] br[50] bl[51] br[51] bl[52] br[52] bl[53] br[53] bl[54] br[54] bl[55] br[55] bl[56] br[56] bl[57] br[57] bl[58] br[58] bl[59] br[59] bl[60] br[60] bl[61] br[61] bl[62] br[62] bl[63] br[63] wl[0] wl[1] wl[2] wl[3] wl[4] wl[5] wl[6] wl[7] wl[8] wl[9] wl[10] wl[11] wl[12] wl[13] wl[14] wl[15] wl[16] wl[17] wl[18] wl[19] wl[20] wl[21] wl[22] wl[23] wl[24] wl[25] wl[26] wl[27] wl[28] wl[29] wl[30] wl[31] vdd gnd
Xbit_r0_c0 bl[0] br[0] wl[0] gnd reram_bitcell_7
Xbit_r1_c0 bl[0] br[0] wl[1] gnd reram_bitcell_7
Xbit_r2_c0 bl[0] br[0] wl[2] gnd reram_bitcell_7
Xbit_r3_c0 bl[0] br[0] wl[3] gnd reram_bitcell_7
Xbit_r4_c0 bl[0] br[0] wl[4] gnd reram_bitcell_7
Xbit_r5_c0 bl[0] br[0] wl[5] gnd reram_bitcell_7
Xbit_r6_c0 bl[0] br[0] wl[6] gnd reram_bitcell_7
Xbit_r7_c0 bl[0] br[0] wl[7] gnd reram_bitcell_7
Xbit_r8_c0 bl[0] br[0] wl[8] gnd reram_bitcell_7
Xbit_r9_c0 bl[0] br[0] wl[9] gnd reram_bitcell_7
Xbit_r10_c0 bl[0] br[0] wl[10] gnd reram_bitcell_7
Xbit_r11_c0 bl[0] br[0] wl[11] gnd reram_bitcell_7
Xbit_r12_c0 bl[0] br[0] wl[12] gnd reram_bitcell_7
Xbit_r13_c0 bl[0] br[0] wl[13] gnd reram_bitcell_7
Xbit_r14_c0 bl[0] br[0] wl[14] gnd reram_bitcell_7
Xbit_r15_c0 bl[0] br[0] wl[15] gnd reram_bitcell_7
Xbit_r16_c0 bl[0] br[0] wl[16] gnd reram_bitcell_7
Xbit_r17_c0 bl[0] br[0] wl[17] gnd reram_bitcell_7
Xbit_r18_c0 bl[0] br[0] wl[18] gnd reram_bitcell_7
Xbit_r19_c0 bl[0] br[0] wl[19] gnd reram_bitcell_7
Xbit_r20_c0 bl[0] br[0] wl[20] gnd reram_bitcell_7
Xbit_r21_c0 bl[0] br[0] wl[21] gnd reram_bitcell_7
Xbit_r22_c0 bl[0] br[0] wl[22] gnd reram_bitcell_7
Xbit_r23_c0 bl[0] br[0] wl[23] gnd reram_bitcell_7
Xbit_r24_c0 bl[0] br[0] wl[24] gnd reram_bitcell_7
Xbit_r25_c0 bl[0] br[0] wl[25] gnd reram_bitcell_7
Xbit_r26_c0 bl[0] br[0] wl[26] gnd reram_bitcell_7
Xbit_r27_c0 bl[0] br[0] wl[27] gnd reram_bitcell_7
Xbit_r28_c0 bl[0] br[0] wl[28] gnd reram_bitcell_7
Xbit_r29_c0 bl[0] br[0] wl[29] gnd reram_bitcell_7
Xbit_r30_c0 bl[0] br[0] wl[30] gnd reram_bitcell_7
Xbit_r31_c0 bl[0] br[0] wl[31] gnd reram_bitcell_7
Xbit_r0_c1 bl[1] br[1] wl[0] gnd reram_bitcell_7
Xbit_r1_c1 bl[1] br[1] wl[1] gnd reram_bitcell_7
Xbit_r2_c1 bl[1] br[1] wl[2] gnd reram_bitcell_7
Xbit_r3_c1 bl[1] br[1] wl[3] gnd reram_bitcell_7
Xbit_r4_c1 bl[1] br[1] wl[4] gnd reram_bitcell_7
Xbit_r5_c1 bl[1] br[1] wl[5] gnd reram_bitcell_7
Xbit_r6_c1 bl[1] br[1] wl[6] gnd reram_bitcell_7
Xbit_r7_c1 bl[1] br[1] wl[7] gnd reram_bitcell_7
Xbit_r8_c1 bl[1] br[1] wl[8] gnd reram_bitcell_7
Xbit_r9_c1 bl[1] br[1] wl[9] gnd reram_bitcell_7
Xbit_r10_c1 bl[1] br[1] wl[10] gnd reram_bitcell_7
Xbit_r11_c1 bl[1] br[1] wl[11] gnd reram_bitcell_7
Xbit_r12_c1 bl[1] br[1] wl[12] gnd reram_bitcell_7
Xbit_r13_c1 bl[1] br[1] wl[13] gnd reram_bitcell_7
Xbit_r14_c1 bl[1] br[1] wl[14] gnd reram_bitcell_7
Xbit_r15_c1 bl[1] br[1] wl[15] gnd reram_bitcell_7
Xbit_r16_c1 bl[1] br[1] wl[16] gnd reram_bitcell_7
Xbit_r17_c1 bl[1] br[1] wl[17] gnd reram_bitcell_7
Xbit_r18_c1 bl[1] br[1] wl[18] gnd reram_bitcell_7
Xbit_r19_c1 bl[1] br[1] wl[19] gnd reram_bitcell_7
Xbit_r20_c1 bl[1] br[1] wl[20] gnd reram_bitcell_7
Xbit_r21_c1 bl[1] br[1] wl[21] gnd reram_bitcell_7
Xbit_r22_c1 bl[1] br[1] wl[22] gnd reram_bitcell_7
Xbit_r23_c1 bl[1] br[1] wl[23] gnd reram_bitcell_7
Xbit_r24_c1 bl[1] br[1] wl[24] gnd reram_bitcell_7
Xbit_r25_c1 bl[1] br[1] wl[25] gnd reram_bitcell_7
Xbit_r26_c1 bl[1] br[1] wl[26] gnd reram_bitcell_7
Xbit_r27_c1 bl[1] br[1] wl[27] gnd reram_bitcell_7
Xbit_r28_c1 bl[1] br[1] wl[28] gnd reram_bitcell_7
Xbit_r29_c1 bl[1] br[1] wl[29] gnd reram_bitcell_7
Xbit_r30_c1 bl[1] br[1] wl[30] gnd reram_bitcell_7
Xbit_r31_c1 bl[1] br[1] wl[31] gnd reram_bitcell_7
Xbit_r0_c2 bl[2] br[2] wl[0] gnd reram_bitcell_7
Xbit_r1_c2 bl[2] br[2] wl[1] gnd reram_bitcell_7
Xbit_r2_c2 bl[2] br[2] wl[2] gnd reram_bitcell_7
Xbit_r3_c2 bl[2] br[2] wl[3] gnd reram_bitcell_7
Xbit_r4_c2 bl[2] br[2] wl[4] gnd reram_bitcell_7
Xbit_r5_c2 bl[2] br[2] wl[5] gnd reram_bitcell_7
Xbit_r6_c2 bl[2] br[2] wl[6] gnd reram_bitcell_7
Xbit_r7_c2 bl[2] br[2] wl[7] gnd reram_bitcell_7
Xbit_r8_c2 bl[2] br[2] wl[8] gnd reram_bitcell_7
Xbit_r9_c2 bl[2] br[2] wl[9] gnd reram_bitcell_7
Xbit_r10_c2 bl[2] br[2] wl[10] gnd reram_bitcell_7
Xbit_r11_c2 bl[2] br[2] wl[11] gnd reram_bitcell_7
Xbit_r12_c2 bl[2] br[2] wl[12] gnd reram_bitcell_7
Xbit_r13_c2 bl[2] br[2] wl[13] gnd reram_bitcell_7
Xbit_r14_c2 bl[2] br[2] wl[14] gnd reram_bitcell_7
Xbit_r15_c2 bl[2] br[2] wl[15] gnd reram_bitcell_7
Xbit_r16_c2 bl[2] br[2] wl[16] gnd reram_bitcell_7
Xbit_r17_c2 bl[2] br[2] wl[17] gnd reram_bitcell_7
Xbit_r18_c2 bl[2] br[2] wl[18] gnd reram_bitcell_7
Xbit_r19_c2 bl[2] br[2] wl[19] gnd reram_bitcell_7
Xbit_r20_c2 bl[2] br[2] wl[20] gnd reram_bitcell_7
Xbit_r21_c2 bl[2] br[2] wl[21] gnd reram_bitcell_7
Xbit_r22_c2 bl[2] br[2] wl[22] gnd reram_bitcell_7
Xbit_r23_c2 bl[2] br[2] wl[23] gnd reram_bitcell_7
Xbit_r24_c2 bl[2] br[2] wl[24] gnd reram_bitcell_7
Xbit_r25_c2 bl[2] br[2] wl[25] gnd reram_bitcell_7
Xbit_r26_c2 bl[2] br[2] wl[26] gnd reram_bitcell_7
Xbit_r27_c2 bl[2] br[2] wl[27] gnd reram_bitcell_7
Xbit_r28_c2 bl[2] br[2] wl[28] gnd reram_bitcell_7
Xbit_r29_c2 bl[2] br[2] wl[29] gnd reram_bitcell_7
Xbit_r30_c2 bl[2] br[2] wl[30] gnd reram_bitcell_7
Xbit_r31_c2 bl[2] br[2] wl[31] gnd reram_bitcell_7
Xbit_r0_c3 bl[3] br[3] wl[0] gnd reram_bitcell_7
Xbit_r1_c3 bl[3] br[3] wl[1] gnd reram_bitcell_7
Xbit_r2_c3 bl[3] br[3] wl[2] gnd reram_bitcell_7
Xbit_r3_c3 bl[3] br[3] wl[3] gnd reram_bitcell_7
Xbit_r4_c3 bl[3] br[3] wl[4] gnd reram_bitcell_7
Xbit_r5_c3 bl[3] br[3] wl[5] gnd reram_bitcell_7
Xbit_r6_c3 bl[3] br[3] wl[6] gnd reram_bitcell_7
Xbit_r7_c3 bl[3] br[3] wl[7] gnd reram_bitcell_7
Xbit_r8_c3 bl[3] br[3] wl[8] gnd reram_bitcell_7
Xbit_r9_c3 bl[3] br[3] wl[9] gnd reram_bitcell_7
Xbit_r10_c3 bl[3] br[3] wl[10] gnd reram_bitcell_7
Xbit_r11_c3 bl[3] br[3] wl[11] gnd reram_bitcell_7
Xbit_r12_c3 bl[3] br[3] wl[12] gnd reram_bitcell_7
Xbit_r13_c3 bl[3] br[3] wl[13] gnd reram_bitcell_7
Xbit_r14_c3 bl[3] br[3] wl[14] gnd reram_bitcell_7
Xbit_r15_c3 bl[3] br[3] wl[15] gnd reram_bitcell_7
Xbit_r16_c3 bl[3] br[3] wl[16] gnd reram_bitcell_7
Xbit_r17_c3 bl[3] br[3] wl[17] gnd reram_bitcell_7
Xbit_r18_c3 bl[3] br[3] wl[18] gnd reram_bitcell_7
Xbit_r19_c3 bl[3] br[3] wl[19] gnd reram_bitcell_7
Xbit_r20_c3 bl[3] br[3] wl[20] gnd reram_bitcell_7
Xbit_r21_c3 bl[3] br[3] wl[21] gnd reram_bitcell_7
Xbit_r22_c3 bl[3] br[3] wl[22] gnd reram_bitcell_7
Xbit_r23_c3 bl[3] br[3] wl[23] gnd reram_bitcell_7
Xbit_r24_c3 bl[3] br[3] wl[24] gnd reram_bitcell_7
Xbit_r25_c3 bl[3] br[3] wl[25] gnd reram_bitcell_7
Xbit_r26_c3 bl[3] br[3] wl[26] gnd reram_bitcell_7
Xbit_r27_c3 bl[3] br[3] wl[27] gnd reram_bitcell_7
Xbit_r28_c3 bl[3] br[3] wl[28] gnd reram_bitcell_7
Xbit_r29_c3 bl[3] br[3] wl[29] gnd reram_bitcell_7
Xbit_r30_c3 bl[3] br[3] wl[30] gnd reram_bitcell_7
Xbit_r31_c3 bl[3] br[3] wl[31] gnd reram_bitcell_7
Xbit_r0_c4 bl[4] br[4] wl[0] gnd reram_bitcell_7
Xbit_r1_c4 bl[4] br[4] wl[1] gnd reram_bitcell_7
Xbit_r2_c4 bl[4] br[4] wl[2] gnd reram_bitcell_7
Xbit_r3_c4 bl[4] br[4] wl[3] gnd reram_bitcell_7
Xbit_r4_c4 bl[4] br[4] wl[4] gnd reram_bitcell_7
Xbit_r5_c4 bl[4] br[4] wl[5] gnd reram_bitcell_7
Xbit_r6_c4 bl[4] br[4] wl[6] gnd reram_bitcell_7
Xbit_r7_c4 bl[4] br[4] wl[7] gnd reram_bitcell_7
Xbit_r8_c4 bl[4] br[4] wl[8] gnd reram_bitcell_7
Xbit_r9_c4 bl[4] br[4] wl[9] gnd reram_bitcell_7
Xbit_r10_c4 bl[4] br[4] wl[10] gnd reram_bitcell_7
Xbit_r11_c4 bl[4] br[4] wl[11] gnd reram_bitcell_7
Xbit_r12_c4 bl[4] br[4] wl[12] gnd reram_bitcell_7
Xbit_r13_c4 bl[4] br[4] wl[13] gnd reram_bitcell_7
Xbit_r14_c4 bl[4] br[4] wl[14] gnd reram_bitcell_7
Xbit_r15_c4 bl[4] br[4] wl[15] gnd reram_bitcell_7
Xbit_r16_c4 bl[4] br[4] wl[16] gnd reram_bitcell_7
Xbit_r17_c4 bl[4] br[4] wl[17] gnd reram_bitcell_7
Xbit_r18_c4 bl[4] br[4] wl[18] gnd reram_bitcell_7
Xbit_r19_c4 bl[4] br[4] wl[19] gnd reram_bitcell_7
Xbit_r20_c4 bl[4] br[4] wl[20] gnd reram_bitcell_7
Xbit_r21_c4 bl[4] br[4] wl[21] gnd reram_bitcell_7
Xbit_r22_c4 bl[4] br[4] wl[22] gnd reram_bitcell_7
Xbit_r23_c4 bl[4] br[4] wl[23] gnd reram_bitcell_7
Xbit_r24_c4 bl[4] br[4] wl[24] gnd reram_bitcell_7
Xbit_r25_c4 bl[4] br[4] wl[25] gnd reram_bitcell_7
Xbit_r26_c4 bl[4] br[4] wl[26] gnd reram_bitcell_7
Xbit_r27_c4 bl[4] br[4] wl[27] gnd reram_bitcell_7
Xbit_r28_c4 bl[4] br[4] wl[28] gnd reram_bitcell_7
Xbit_r29_c4 bl[4] br[4] wl[29] gnd reram_bitcell_7
Xbit_r30_c4 bl[4] br[4] wl[30] gnd reram_bitcell_7
Xbit_r31_c4 bl[4] br[4] wl[31] gnd reram_bitcell_7
Xbit_r0_c5 bl[5] br[5] wl[0] gnd reram_bitcell_7
Xbit_r1_c5 bl[5] br[5] wl[1] gnd reram_bitcell_7
Xbit_r2_c5 bl[5] br[5] wl[2] gnd reram_bitcell_7
Xbit_r3_c5 bl[5] br[5] wl[3] gnd reram_bitcell_7
Xbit_r4_c5 bl[5] br[5] wl[4] gnd reram_bitcell_7
Xbit_r5_c5 bl[5] br[5] wl[5] gnd reram_bitcell_7
Xbit_r6_c5 bl[5] br[5] wl[6] gnd reram_bitcell_7
Xbit_r7_c5 bl[5] br[5] wl[7] gnd reram_bitcell_7
Xbit_r8_c5 bl[5] br[5] wl[8] gnd reram_bitcell_7
Xbit_r9_c5 bl[5] br[5] wl[9] gnd reram_bitcell_7